digraph G {
"moderngpu/moderngpu" -> "gpgpu-sim/gpgpu-sim_distribution" ["e"=1]
"ARM-software/SCALE-Sim" -> "scalesim-project/scale-sim-v2"
"ARM-software/SCALE-Sim" -> "stanford-mast/nn_dataflow"
"ARM-software/SCALE-Sim" -> "NVlabs/timeloop"
"ARM-software/SCALE-Sim" -> "maestro-project/maestro"
"ARM-software/SCALE-Sim" -> "HewlettPackard/cacti"
"ARM-software/SCALE-Sim" -> "Accelergy-Project/accelergy"
"ARM-software/SCALE-Sim" -> "harvard-acc/ALADDIN"
"ARM-software/SCALE-Sim" -> "stonne-simulator/stonne"
"ARM-software/SCALE-Sim" -> "jneless/EyerissF" ["e"=1]
"ARM-software/SCALE-Sim" -> "harvard-acc/gem5-aladdin"
"ARM-software/SCALE-Sim" -> "BRTResearch/AIChip_Paper_List"
"ARM-software/SCALE-Sim" -> "fengbintu/Neural-Networks-on-Silicon" ["e"=1]
"ARM-software/SCALE-Sim" -> "booksim/booksim2"
"ARM-software/SCALE-Sim" -> "harvard-acc/smaug"
"ARM-software/SCALE-Sim" -> "CMU-SAFARI/ramulator"
"s5z/zsim" -> "CMU-SAFARI/ramulator-pim"
"s5z/zsim" -> "CMU-SAFARI/ramulator"
"s5z/zsim" -> "umd-memsys/DRAMSim2"
"s5z/zsim" -> "HewlettPackard/cacti"
"s5z/zsim" -> "vineodd/PIMSim"
"s5z/zsim" -> "harvard-acc/ALADDIN"
"s5z/zsim" -> "HewlettPackard/mcpat"
"s5z/zsim" -> "booksim/booksim2"
"s5z/zsim" -> "umd-memsys/DRAMsim3"
"s5z/zsim" -> "harvard-acc/gem5-aladdin"
"s5z/zsim" -> "Systems-ShiftLab/MultiPIM"
"s5z/zsim" -> "snipersim/snipersim"
"s5z/zsim" -> "gem5/gem5"
"s5z/zsim" -> "cyjseagull/SHMA"
"s5z/zsim" -> "ARM-software/SCALE-Sim"
"MPSLab-ASU/dMazeRunner" -> "MPSLab-ASU/DiRAC"
"uvahotspot/HotSpot" -> "bu-icsg/TAP-2.5D"
"uvahotspot/HotSpot" -> "HewlettPackard/mcpat"
"uvahotspot/HotSpot" -> "PrincetonUniversity/muchiSim"
"RRZE-HPC/gpu-benches" -> "accel-sim/accel-sim-framework" ["e"=1]
"ucb-bar/gemmini" -> "NVlabs/timeloop" ["e"=1]
"ucb-bar/gemmini" -> "scalesim-project/scale-sim-v2" ["e"=1]
"ucb-bar/gemmini" -> "BRTResearch/AIChip_Paper_List" ["e"=1]
"ucb-bar/gemmini" -> "harvard-acc/gem5-aladdin" ["e"=1]
"ucb-bar/gemmini" -> "ARM-software/SCALE-Sim" ["e"=1]
"ucb-bar/gemmini" -> "HewlettPackard/cacti" ["e"=1]
"cloudcores/CuAssembler" -> "NVlabs/NVBit" ["e"=1]
"neurosim/MLP_NeuroSim_V3.0" -> "neurosim/DNN_NeuroSim_V2.1"
"neurosim/MLP_NeuroSim_V3.0" -> "thu-nics/MNSIM-2.0"
"neurosim/MLP_NeuroSim_V3.0" -> "SEAL-UCSB/NVSim"
"neurosim/MLP_NeuroSim_V3.0" -> "neurosim/MLP_NeuroSim_V1.0"
"neurosim/MLP_NeuroSim_V3.0" -> "neurosim/DNN_NeuroSim_V1.3"
"neurosim/MLP_NeuroSim_V3.0" -> "neurosim/DNN_NeuroSim_V2.0"
"neurosim/MLP_NeuroSim_V3.0" -> "neurosim/DNN_NeuroSim_V1.4"
"neurosim/MLP_NeuroSim_V3.0" -> "sandialabs/cross-sim"
"neurosim/MLP_NeuroSim_V3.0" -> "Aayush-Ankit/puma-simulator"
"neurosim/MLP_NeuroSim_V3.0" -> "thuime/XPEsim"
"neurosim/MLP_NeuroSim_V3.0" -> "coreylammie/MemTorch"
"neurosim/MLP_NeuroSim_V3.0" -> "neurosim/3D_NeuroSim_V1.0"
"NVlabs/timeloop" -> "Accelergy-Project/accelergy"
"NVlabs/timeloop" -> "Accelergy-Project/timeloop-accelergy-exercises"
"NVlabs/timeloop" -> "maestro-project/maestro"
"NVlabs/timeloop" -> "scalesim-project/scale-sim-v2"
"NVlabs/timeloop" -> "ucb-bar/cosa"
"NVlabs/timeloop" -> "KULeuven-MICAS/zigzag"
"NVlabs/timeloop" -> "harvard-acc/ALADDIN"
"NVlabs/timeloop" -> "HewlettPackard/cacti"
"NVlabs/timeloop" -> "ucb-bar/gemmini" ["e"=1]
"NVlabs/timeloop" -> "ARM-software/SCALE-Sim"
"NVlabs/timeloop" -> "stanford-mast/nn_dataflow"
"NVlabs/timeloop" -> "accel-sim/accel-sim-framework"
"NVlabs/timeloop" -> "BRTResearch/AIChip_Paper_List"
"NVlabs/timeloop" -> "stonne-simulator/stonne"
"NVlabs/timeloop" -> "Accelergy-Project/accelergy-timeloop-infrastructure"
"umd-memsys/DRAMsim3" -> "CMU-SAFARI/ramulator"
"umd-memsys/DRAMsim3" -> "umd-memsys/DRAMSim2"
"umd-memsys/DRAMsim3" -> "CMU-SAFARI/ramulator2"
"umd-memsys/DRAMsim3" -> "tukl-msd/DRAMSys" ["e"=1]
"umd-memsys/DRAMsim3" -> "SAITPublic/PIMSimulator"
"umd-memsys/DRAMsim3" -> "scalesim-project/scale-sim-v2"
"umd-memsys/DRAMsim3" -> "tukl-msd/DRAMPower"
"umd-memsys/DRAMsim3" -> "HewlettPackard/cacti"
"umd-memsys/DRAMsim3" -> "accel-sim/accel-sim-framework"
"umd-memsys/DRAMsim3" -> "HewlettPackard/mcpat"
"umd-memsys/DRAMsim3" -> "PSAL-POSTECH/ONNXim"
"umd-memsys/DRAMsim3" -> "CMU-SAFARI/ramulator-pim"
"umd-memsys/DRAMsim3" -> "booksim/booksim2"
"umd-memsys/DRAMsim3" -> "vineodd/PIMSim"
"umd-memsys/DRAMsim3" -> "s5z/zsim"
"CMU-SAFARI/ramulator-pim" -> "vineodd/PIMSim"
"CMU-SAFARI/ramulator-pim" -> "Systems-ShiftLab/MultiPIM"
"CMU-SAFARI/ramulator-pim" -> "s5z/zsim"
"CMU-SAFARI/ramulator-pim" -> "CMU-SAFARI/ramulator"
"CMU-SAFARI/ramulator-pim" -> "CMU-SAFARI/DAMOV"
"CMU-SAFARI/ramulator-pim" -> "SAITPublic/PIMSimulator"
"CMU-SAFARI/ramulator-pim" -> "CMU-SAFARI/IMPICA"
"CMU-SAFARI/ramulator-pim" -> "CMU-SAFARI/PiDRAM"
"CMU-SAFARI/ramulator-pim" -> "PSAL-POSTECH/ONNXim"
"CMU-SAFARI/ramulator-pim" -> "miglopst/PIM_NDP_papers"
"CMU-SAFARI/ramulator-pim" -> "CMU-SAFARI/prim-benchmarks"
"CMU-SAFARI/ramulator-pim" -> "VIA-Research/uPIMulator"
"MPSLab-ASU/ccf" -> "MPSLab-ASU/DiRAC" ["e"=1]
"MPSLab-ASU/ccf" -> "MPSLab-ASU/dMazeRunner" ["e"=1]
"jneless/EyerissF" -> "stanford-mast/nn_dataflow" ["e"=1]
"taoyilee/clacc" -> "stanford-mast/nn_dataflow" ["e"=1]
"taoyilee/clacc" -> "BRTResearch/AIChip_Paper_List" ["e"=1]
"NVIDIA/open-gpu-doc" -> "NVlabs/NVBit" ["e"=1]
"NVIDIA/open-gpu-doc" -> "gpgpu-sim/gpgpu-sim_distribution" ["e"=1]
"spcl/dace" -> "NVlabs/timeloop" ["e"=1]
"ONNC/onnc" -> "stanford-mast/nn_dataflow" ["e"=1]
"maeri-project/MAERI_bsv_isca2018" -> "hyoukjun/MAESTRO"
"maeri-project/MAERI_bsv_isca2018" -> "maeri-project/MAERI_bsv"
"hyoukjun/MAESTRO" -> "maeri-project/MAERI_bsv_isca2018"
"SEAL-UCSB/NVSim" -> "SEAL-UCSB/NVmain"
"SEAL-UCSB/NVSim" -> "thu-nics/MNSIM-2.0"
"SEAL-UCSB/NVSim" -> "neurosim/MLP_NeuroSim_V3.0"
"SEAL-UCSB/NVSim" -> "HewlettPackard/cacti"
"SEAL-UCSB/NVSim" -> "vineodd/PIMSim"
"SEAL-UCSB/NVSim" -> "neurosim/DNN_NeuroSim_V1.0"
"SEAL-UCSB/NVSim" -> "neurosim/DNN_NeuroSim_V1.3"
"SEAL-UCSB/NVSim" -> "Aayush-Ankit/puma-simulator"
"SEAL-UCSB/NVSim" -> "thuime/XPEsim"
"SEAL-UCSB/NVSim" -> "neurosim/DNN_NeuroSim_V2.0"
"SEAL-UCSB/NVSim" -> "CRAFT-THU/XB-Sim"
"SEAL-UCSB/NVSim" -> "stevenygd/WAGE.pytorch" ["e"=1]
"zhongruiwang/memristorCNN" -> "zhongruiwang/memristor_RL"
"zhongruiwang/memristorCNN" -> "ianvermeulen/memristor_simulations"
"zhongruiwang/memristorCNN" -> "ElimuMichael/Memristor"
"sld-columbia/esp" -> "harvard-acc/gem5-aladdin" ["e"=1]
"nvdla/sw" -> "ARM-software/SCALE-Sim" ["e"=1]
"miglopst/PIM_NDP_papers" -> "Systems-ShiftLab/MultiPIM"
"miglopst/PIM_NDP_papers" -> "CMU-SAFARI/IMPICA"
"maestro-project/maestro" -> "NVlabs/timeloop"
"maestro-project/maestro" -> "maestro-project/gamma"
"maestro-project/maestro" -> "pku-liang/TENET"
"maestro-project/maestro" -> "scalesim-project/scale-sim-v2"
"maestro-project/maestro" -> "ARM-software/SCALE-Sim"
"maestro-project/maestro" -> "harvard-acc/smaug"
"maestro-project/maestro" -> "stonne-simulator/stonne"
"maestro-project/maestro" -> "ucb-bar/cosa"
"maestro-project/maestro" -> "pku-liang/TileFlow" ["e"=1]
"maestro-project/maestro" -> "Accelergy-Project/accelergy"
"maestro-project/maestro" -> "harvard-acc/ALADDIN"
"maestro-project/maestro" -> "maeri-project/MAERI_bsv"
"maestro-project/maestro" -> "maestro-project/confuciux"
"maestro-project/maestro" -> "KULeuven-MICAS/zigzag"
"maestro-project/maestro" -> "stanford-mast/nn_dataflow"
"hsharma35/dnnweaver2" -> "stanford-mast/nn_dataflow" ["e"=1]
"GT-CHIPS/gem5_chips" -> "FCAS-LAB/Chiplet-Gem5-SharedMemory"
"GT-CHIPS/gem5_chips" -> "PrincetonUniversity/muchiSim"
"GT-CHIPS/gem5_chips" -> "FCAS-LAB/chiplet_simulators"
"cornell-zhang/rosetta" -> "breagen/MachSuite" ["e"=1]
"NVlabs/matchlib" -> "harvard-acc/ALADDIN" ["e"=1]
"booksim/booksim2" -> "davidepatti/noxim" ["e"=1]
"booksim/booksim2" -> "harvard-acc/gem5-aladdin"
"booksim/booksim2" -> "booksim/booksim"
"booksim/booksim2" -> "scalesim-project/scale-sim-v2"
"booksim/booksim2" -> "PSAL-POSTECH/ONNXim"
"booksim/booksim2" -> "ARM-software/SCALE-Sim"
"booksim/booksim2" -> "umd-memsys/DRAMsim3"
"booksim/booksim2" -> "accel-sim/accel-sim-framework"
"booksim/booksim2" -> "s5z/zsim"
"booksim/booksim2" -> "harvard-acc/ALADDIN"
"booksim/booksim2" -> "HewlettPackard/cacti"
"booksim/booksim2" -> "NVlabs/timeloop"
"booksim/booksim2" -> "umd-memsys/DRAMSim2"
"booksim/booksim2" -> "CMU-SAFARI/ramulator2"
"booksim/booksim2" -> "spcl/rapidchiplet"
"hsharma35/bitfusion" -> "stanford-mast/nn_dataflow" ["e"=1]
"maeri-project/MAERI_bsv" -> "maeri-project/MAERI_bsv_isca2018"
"maeri-project/MAERI_bsv" -> "hyoukjun/DesignCNNAccelerators"
"maeri-project/MAERI_bsv" -> "georgia-tech-synergy-lab/maestro-stable"
"DebashisGanguly/gpgpu-sim_UVMSmart" -> "OSU-STARLAB/UVM_benchmark"
"DebashisGanguly/gpgpu-sim_UVMSmart" -> "platformxlab/G10"
"DebashisGanguly/gpgpu-sim_UVMSmart" -> "tallendev/uvm-eval"
"DebashisGanguly/gpgpu-sim_UVMSmart" -> "CMU-SAFARI/Mosaic"
"nvidia-compiler-sdk/nvvmir-samples" -> "nvidia-compiler-sdk/pynvvm"
"nvidia-compiler-sdk/nvvmir-samples" -> "apc-llc/nvcc-llvm-ir"
"envytools/envytools" -> "NVlabs/SASSI" ["e"=1]
"CMU-SAFARI/Mosaic" -> "adwaitjog/mafia"
"SEAL-UCSB/NVmain" -> "TheNetAdmin/LENS-VANS"
"SEAL-UCSB/NVmain" -> "cyjseagull/gem5-nvmain-hybrid-simulator"
"SEAL-UCSB/NVmain" -> "SEAL-UCSB/NVSim"
"SEAL-UCSB/NVmain" -> "TheNetAdmin/VANS"
"Accelergy-Project/accelergy" -> "NVlabs/timeloop"
"Accelergy-Project/accelergy" -> "Accelergy-Project/timeloop-accelergy-exercises"
"Accelergy-Project/accelergy" -> "georgia-tech-synergy-lab/SIGMA"
"Accelergy-Project/accelergy" -> "scalesim-project/scale-sim-v2"
"Accelergy-Project/accelergy" -> "stonne-simulator/stonne"
"Accelergy-Project/accelergy" -> "Accelergy-Project/accelergy-timeloop-infrastructure"
"Accelergy-Project/accelergy" -> "ARM-software/SCALE-Sim"
"Accelergy-Project/accelergy" -> "ucb-bar/cosa"
"Accelergy-Project/accelergy" -> "harvard-acc/ALADDIN"
"Accelergy-Project/accelergy" -> "maestro-project/maestro"
"Accelergy-Project/accelergy" -> "KULeuven-MICAS/zigzag"
"yonseicasl/Kite" -> "yonseicasl/Nebula"
"neurosim/MLP_NeuroSim_V2.0" -> "neurosim/MLP_NeuroSim_V1.0"
"neurosim/DNN_NeuroSim_V1.0" -> "neurosim/DNN_NeuroSim_V2.0"
"neurosim/DNN_NeuroSim_V1.0" -> "neurosim/DNN_NeuroSim_V1.1"
"neurosim/DNN_NeuroSim_V1.0" -> "neurosim/MLP_NeuroSim_V1.0"
"illinois-impact/puma-compiler" -> "Aayush-Ankit/puma-simulator"
"nvidia-compiler-sdk/pynvvm" -> "nvidia-compiler-sdk/hsnvvm"
"TeCSAR-UNCC/gem5-SALAM" -> "harvard-acc/gem5-aladdin"
"TeCSAR-UNCC/gem5-SALAM" -> "harvard-acc/smaug"
"TeCSAR-UNCC/gem5-SALAM" -> "MPSLab-ASU/ccf" ["e"=1]
"nvidia-compiler-sdk/hsnvvm" -> "nvidia-compiler-sdk/pynvvm"
"VerticalResearchGroup/miaow" -> "gpgpu-sim/gpgpu-sim_distribution" ["e"=1]
"rajesh-s/computer-architecture-and-systems-resources" -> "HewlettPackard/cacti" ["e"=1]
"rajesh-s/computer-architecture-and-systems-resources" -> "ChampSim/ChampSim" ["e"=1]
"gem5/gem5" -> "ucb-bar/chipyard" ["e"=1]
"gem5/gem5" -> "riscv-boom/riscv-boom" ["e"=1]
"gem5/gem5" -> "powerjg/learning_gem5"
"gem5/gem5" -> "gpgpu-sim/gpgpu-sim_distribution"
"gem5/gem5" -> "riscv-software-src/riscv-isa-sim" ["e"=1]
"gem5/gem5" -> "chipsalliance/chisel" ["e"=1]
"gem5/gem5" -> "ChampSim/ChampSim"
"gem5/gem5" -> "CMU-SAFARI/ramulator"
"gem5/gem5" -> "chipsalliance/rocket-chip" ["e"=1]
"gem5/gem5" -> "s5z/zsim"
"gem5/gem5" -> "HewlettPackard/cacti"
"gem5/gem5" -> "openhwgroup/cva6" ["e"=1]
"gem5/gem5" -> "umd-memsys/DRAMsim3"
"gem5/gem5" -> "verilator/verilator" ["e"=1]
"gem5/gem5" -> "ucb-bar/gemmini" ["e"=1]
"breagen/MachSuite" -> "KastnerRG/spector" ["e"=1]
"breagen/MachSuite" -> "cornell-zhang/rosetta" ["e"=1]
"breagen/MachSuite" -> "harvard-acc/ALADDIN"
"breagen/MachSuite" -> "lana555/dynamatic" ["e"=1]
"NervanaSystems/maxas" -> "gpgpu-sim/gpgpu-sim_distribution" ["e"=1]
"HewlettPackard/mcpat" -> "harvard-acc/gem5-aladdin"
"HewlettPackard/mcpat" -> "HewlettPackard/cacti"
"HewlettPackard/mcpat" -> "umd-memsys/DRAMSim2"
"HewlettPackard/mcpat" -> "uvahotspot/HotSpot"
"HewlettPackard/mcpat" -> "harvard-acc/ALADDIN"
"HewlettPackard/mcpat" -> "tukl-msd/DRAMPower"
"HewlettPackard/mcpat" -> "umd-memsys/DRAMsim3"
"HewlettPackard/mcpat" -> "arm-university/arm-gem5-rsk"
"HewlettPackard/mcpat" -> "tukl-msd/DRAMSys" ["e"=1]
"HewlettPackard/mcpat" -> "s5z/zsim"
"HewlettPackard/mcpat" -> "NVlabs/timeloop"
"coreylammie/MemTorch" -> "akdimitri/RRAM_COMPILER"
"coreylammie/MemTorch" -> "thu-nics/MNSIM-2.0"
"coreylammie/MemTorch" -> "knowm/memristor-models-4-all"
"coreylammie/MemTorch" -> "sandialabs/cross-sim"
"coreylammie/MemTorch" -> "zhongruiwang/memristorCNN"
"coreylammie/MemTorch" -> "thomastiotto/Memristor-Models"
"coreylammie/MemTorch" -> "CRAFT-THU/XB-Sim"
"coreylammie/MemTorch" -> "Aayush-Ankit/puma-simulator"
"coreylammie/MemTorch" -> "ElimuMichael/Memristor"
"coreylammie/MemTorch" -> "IBM/aihwkit"
"coreylammie/MemTorch" -> "joksas/badcrossbar"
"coreylammie/MemTorch" -> "fgr1986/vlsi_memristor_compact_model"
"coreylammie/MemTorch" -> "elliothe/pytorx"
"coreylammie/MemTorch" -> "Tsinghua-LEMON-Lab/Reservoir-computing"
"coreylammie/MemTorch" -> "neurosim/MLP_NeuroSim_V3.0"
"thu-nics/MNSIM-2.0" -> "Aayush-Ankit/puma-simulator"
"thu-nics/MNSIM-2.0" -> "neurosim/DNN_NeuroSim_V2.1"
"thu-nics/MNSIM-2.0" -> "neurosim/MLP_NeuroSim_V3.0"
"thu-nics/MNSIM-2.0" -> "coreylammie/MemTorch"
"thu-nics/MNSIM-2.0" -> "SEAL-UCSB/NVSim"
"thu-nics/MNSIM-2.0" -> "neurosim/DNN_NeuroSim_V1.3"
"thu-nics/MNSIM-2.0" -> "wangxy-2000/pimsim-nn"
"thu-nics/MNSIM-2.0" -> "neurosim/DNN_NeuroSim_V1.4"
"thu-nics/MNSIM-2.0" -> "sandialabs/cross-sim"
"thu-nics/MNSIM-2.0" -> "Zhaoshixin-sky/CIM-MLC"
"thu-nics/MNSIM-2.0" -> "Zhu-Zhenhua/MNSIM_Python"
"thu-nics/MNSIM-2.0" -> "vineodd/PIMSim"
"thu-nics/MNSIM-2.0" -> "mit-emze/cimloop"
"IBM/aihwkit" -> "sandialabs/cross-sim"
"IBM/aihwkit" -> "thu-nics/MNSIM-2.0"
"IBM/aihwkit" -> "coreylammie/MemTorch"
"IBM/aihwkit" -> "neurosim/MLP_NeuroSim_V3.0"
"IBM/aihwkit" -> "neurosim/DNN_NeuroSim_V2.1"
"IBM/aihwkit" -> "IBM/analog-nas"
"IBM/aihwkit" -> "mit-emze/cimloop"
"IBM/aihwkit" -> "neurosim/DNN_NeuroSim_V1.4"
"IBM/aihwkit" -> "Aayush-Ankit/puma-simulator"
"tukl-msd/DRAMPower" -> "tukl-msd/DRAMSys" ["e"=1]
"tukl-msd/DRAMPower" -> "CMU-SAFARI/VAMPIRE"
"tukl-msd/DRAMPower" -> "CMU-SAFARI/ramulator2"
"tukl-msd/DRAMPower" -> "HewlettPackard/mcpat"
"tukl-msd/DRAMPower" -> "umd-memsys/DRAMsim3"
"tukl-msd/DRAMPower" -> "tukl-msd/DRAMSpec"
"tukl-msd/DRAMPower" -> "CMU-SAFARI/ramulator"
"tukl-msd/DRAMPower" -> "umd-memsys/DRAMSim2"
"tukl-msd/DRAMPower" -> "HewlettPackard/cacti"
"gpgpu-sim/gpgpu-sim_distribution" -> "accel-sim/accel-sim-framework"
"gpgpu-sim/gpgpu-sim_distribution" -> "CMU-SAFARI/ramulator"
"gpgpu-sim/gpgpu-sim_distribution" -> "vortexgpgpu/vortex" ["e"=1]
"gpgpu-sim/gpgpu-sim_distribution" -> "jbush001/NyuziProcessor" ["e"=1]
"gpgpu-sim/gpgpu-sim_distribution" -> "NervanaSystems/maxas" ["e"=1]
"gpgpu-sim/gpgpu-sim_distribution" -> "gem5/gem5"
"gpgpu-sim/gpgpu-sim_distribution" -> "HewlettPackard/cacti"
"gpgpu-sim/gpgpu-sim_distribution" -> "ARM-software/SCALE-Sim"
"gpgpu-sim/gpgpu-sim_distribution" -> "THU-DSP-LAB/ventus-gpgpu" ["e"=1]
"gpgpu-sim/gpgpu-sim_distribution" -> "cloudcores/CuAssembler" ["e"=1]
"gpgpu-sim/gpgpu-sim_distribution" -> "booksim/booksim2"
"gpgpu-sim/gpgpu-sim_distribution" -> "VerticalResearchGroup/miaow" ["e"=1]
"gpgpu-sim/gpgpu-sim_distribution" -> "umd-memsys/DRAMsim3"
"gpgpu-sim/gpgpu-sim_distribution" -> "NVlabs/NVBit"
"gpgpu-sim/gpgpu-sim_distribution" -> "scalesim-project/scale-sim-v2"
"BRTResearch/AIChip_Paper_List" -> "fengbintu/Neural-Networks-on-Silicon" ["e"=1]
"BRTResearch/AIChip_Paper_List" -> "scalesim-project/scale-sim-v2"
"BRTResearch/AIChip_Paper_List" -> "NVlabs/timeloop"
"BRTResearch/AIChip_Paper_List" -> "ucb-bar/gemmini" ["e"=1]
"BRTResearch/AIChip_Paper_List" -> "ARM-software/SCALE-Sim"
"BRTResearch/AIChip_Paper_List" -> "maestro-project/maestro"
"BRTResearch/AIChip_Paper_List" -> "HewlettPackard/cacti"
"BRTResearch/AIChip_Paper_List" -> "basicmi/AI-Chip" ["e"=1]
"BRTResearch/AIChip_Paper_List" -> "harvard-acc/gem5-aladdin"
"BRTResearch/AIChip_Paper_List" -> "taoyilee/clacc" ["e"=1]
"BRTResearch/AIChip_Paper_List" -> "accel-sim/accel-sim-framework"
"BRTResearch/AIChip_Paper_List" -> "umd-memsys/DRAMsim3"
"BRTResearch/AIChip_Paper_List" -> "stonne-simulator/stonne"
"BRTResearch/AIChip_Paper_List" -> "SingularityKChen/dl_accelerator" ["e"=1]
"BRTResearch/AIChip_Paper_List" -> "booksim/booksim2"
"hpsresearchgroup/scarab" -> "agusnt/Berti-Artifact"
"MPSLab-ASU/DiRAC" -> "MPSLab-ASU/dMazeRunner"
"tukl-msd/DRAMSys" -> "tukl-msd/DRAMPower" ["e"=1]
"tukl-msd/DRAMSys" -> "umd-memsys/DRAMsim3" ["e"=1]
"tukl-msd/DRAMSys" -> "CMU-SAFARI/ramulator" ["e"=1]
"tukl-msd/DRAMSys" -> "CMU-SAFARI/ramulator2" ["e"=1]
"vortexgpgpu/vortex" -> "gpgpu-sim/gpgpu-sim_distribution" ["e"=1]
"vortexgpgpu/vortex" -> "accel-sim/accel-sim-framework" ["e"=1]
"joksas/badcrossbar" -> "joksas/nonideality-aware-mnn-training"
"HewlettPackard/cacti" -> "NVlabs/timeloop"
"HewlettPackard/cacti" -> "HewlettPackard/mcpat"
"HewlettPackard/cacti" -> "CMU-SAFARI/ramulator"
"HewlettPackard/cacti" -> "ARM-software/SCALE-Sim"
"HewlettPackard/cacti" -> "harvard-acc/ALADDIN"
"HewlettPackard/cacti" -> "SEAL-UCSB/NVSim"
"HewlettPackard/cacti" -> "harvard-acc/gem5-aladdin"
"HewlettPackard/cacti" -> "umd-memsys/DRAMsim3"
"HewlettPackard/cacti" -> "scalesim-project/scale-sim-v2"
"HewlettPackard/cacti" -> "vineodd/PIMSim"
"HewlettPackard/cacti" -> "Accelergy-Project/accelergy"
"HewlettPackard/cacti" -> "tukl-msd/DRAMPower"
"HewlettPackard/cacti" -> "stanford-mast/nn_dataflow"
"HewlettPackard/cacti" -> "CMU-SAFARI/ramulator2"
"HewlettPackard/cacti" -> "s5z/zsim"
"harvard-acc/ALADDIN" -> "harvard-acc/gem5-aladdin"
"harvard-acc/ALADDIN" -> "harvard-acc/smaug"
"harvard-acc/ALADDIN" -> "NVlabs/timeloop"
"harvard-acc/ALADDIN" -> "ARM-software/SCALE-Sim"
"harvard-acc/ALADDIN" -> "stanford-mast/nn_dataflow"
"harvard-acc/ALADDIN" -> "maeri-project/MAERI_bsv"
"harvard-acc/ALADDIN" -> "HewlettPackard/cacti"
"harvard-acc/ALADDIN" -> "Accelergy-Project/accelergy"
"harvard-acc/ALADDIN" -> "maestro-project/maestro"
"harvard-acc/ALADDIN" -> "HewlettPackard/mcpat"
"harvard-acc/ALADDIN" -> "TeCSAR-UNCC/gem5-SALAM"
"harvard-acc/ALADDIN" -> "breagen/MachSuite"
"harvard-acc/ALADDIN" -> "harvard-acc/LLVM-Tracer"
"harvard-acc/ALADDIN" -> "umd-memsys/DRAMSim2"
"harvard-acc/ALADDIN" -> "NVlabs/matchlib" ["e"=1]
"apc-llc/nvcc-llvm-ir" -> "nvidia-compiler-sdk/nvvmir-samples"
"georgia-tech-synergy-lab/SIGMA" -> "sfu-arch/SpGEMM"
"georgia-tech-synergy-lab/SIGMA" -> "Accelergy-Project/accelergy"
"georgia-tech-synergy-lab/SIGMA" -> "stonne-simulator/stonne"
"jbush001/NyuziProcessor" -> "gpgpu-sim/gpgpu-sim_distribution" ["e"=1]
"accel-sim/accel-sim-framework" -> "NVlabs/NVBit"
"accel-sim/accel-sim-framework" -> "gpgpu-sim/gpgpu-sim_distribution"
"accel-sim/accel-sim-framework" -> "sarchlab/mgpusim"
"accel-sim/accel-sim-framework" -> "stonne-simulator/stonne"
"accel-sim/accel-sim-framework" -> "NVlabs/timeloop"
"accel-sim/accel-sim-framework" -> "accel-sim/gpu-app-collection"
"accel-sim/accel-sim-framework" -> "scalesim-project/scale-sim-v2"
"accel-sim/accel-sim-framework" -> "CMU-SAFARI/ramulator2"
"accel-sim/accel-sim-framework" -> "umd-memsys/DRAMsim3"
"accel-sim/accel-sim-framework" -> "CMU-SAFARI/ramulator"
"accel-sim/accel-sim-framework" -> "HewlettPackard/cacti"
"accel-sim/accel-sim-framework" -> "gthparch/macsim"
"accel-sim/accel-sim-framework" -> "DebashisGanguly/gpgpu-sim_UVMSmart"
"accel-sim/accel-sim-framework" -> "booksim/booksim2"
"accel-sim/accel-sim-framework" -> "accel-sim/gpgpu-sim_distribution"
"astra-sim/astra-sim" -> "scalesim-project/scale-sim-v2" ["e"=1]
"astra-sim/astra-sim" -> "accel-sim/accel-sim-framework" ["e"=1]
"neurosim/DNN_NeuroSim_V2.1" -> "neurosim/DNN_NeuroSim_V1.4"
"neurosim/DNN_NeuroSim_V2.1" -> "neurosim/MLP_NeuroSim_V3.0"
"neurosim/DNN_NeuroSim_V2.1" -> "thu-nics/MNSIM-2.0"
"neurosim/DNN_NeuroSim_V2.1" -> "sandialabs/cross-sim"
"neurosim/DNN_NeuroSim_V2.1" -> "neurosim/DNN_NeuroSim_V1.3"
"neurosim/DNN_NeuroSim_V2.1" -> "neurosim/DNN_NeuroSim_V2.0"
"neurosim/DNN_NeuroSim_V2.1" -> "neurosim/DNN_NeuroSim_V1.0"
"apache/tvm-vta" -> "harvard-acc/gem5-aladdin" ["e"=1]
"maestro-project/gamma" -> "Accelergy-Project/micro22-sparseloop-artifact"
"maestro-project/gamma" -> "maestro-project/confuciux"
"maestro-project/gamma" -> "ucb-bar/cosa"
"harvard-acc/LLVM-Tracer" -> "ysshao/WIICA"
"harvard-acc/LLVM-Tracer" -> "harvard-acc/ALADDIN"
"harvard-acc/LLVM-Tracer" -> "breagen/MachSuite"
"Accelergy-Project/accelergy-timeloop-infrastructure" -> "Accelergy-Project/timeloop-accelergy-exercises"
"shinpei0208/gdev" -> "NVlabs/SASSI" ["e"=1]
"shinpei0208/gdev" -> "NVlabs/NVBit" ["e"=1]
"ZigZag-Project/zigzag-v1" -> "MPSLab-ASU/dMazeRunner"
"harvard-acc/smaug" -> "harvard-acc/gem5-aladdin"
"harvard-acc/smaug" -> "harvard-acc/ALADDIN"
"harvard-acc/smaug" -> "stonne-simulator/stonne"
"harvard-acc/smaug" -> "xuanyoya/Interstellar-CNN-scheduler"
"harvard-acc/smaug" -> "GT-CHIPS/gem5_chips"
"harvard-acc/smaug" -> "maestro-project/maestro"
"harvard-acc/smaug" -> "Accelergy-Project/timeloop-accelergy-exercises"
"harvard-acc/smaug" -> "TeCSAR-UNCC/gem5-SALAM"
"IBM/AccDNN" -> "ARM-software/SCALE-Sim" ["e"=1]
"IBM/AccDNN" -> "stanford-mast/nn_dataflow" ["e"=1]
"NVlabs/NVBit" -> "accel-sim/accel-sim-framework"
"NVlabs/NVBit" -> "NVlabs/SASSI"
"NVlabs/NVBit" -> "DebashisGanguly/gpgpu-sim_UVMSmart"
"NVlabs/NVBit" -> "utcs-scea/altis" ["e"=1]
"NVlabs/NVBit" -> "cloudcores/CuAssembler" ["e"=1]
"NVlabs/NVBit" -> "gthparch/macsim"
"NVlabs/NVBit" -> "gtcasl/gpuocelot"
"NVlabs/NVBit" -> "sarchlab/mgpusim"
"NVlabs/NVBit" -> "gpgpu-sim/gpgpu-sim_distribution"
"NVlabs/NVBit" -> "accel-sim/gpgpu-sim_distribution"
"NVlabs/NVBit" -> "daadaada/turingas" ["e"=1]
"NVlabs/NVBit" -> "accel-sim/gpu-app-collection"
"NVlabs/NVBit" -> "NVlabs/nvbitfi"
"NVlabs/NVBit" -> "sderek/CUDAAdvisor"
"UCLA-VAST/AutoSA" -> "NVlabs/timeloop" ["e"=1]
"Accelergy-Project/timeloop-accelergy-exercises" -> "NVlabs/timeloop"
"Accelergy-Project/timeloop-accelergy-exercises" -> "Accelergy-Project/accelergy-timeloop-infrastructure"
"Accelergy-Project/timeloop-accelergy-exercises" -> "Accelergy-Project/timeloop-accelergy-tutorial"
"Accelergy-Project/timeloop-accelergy-exercises" -> "Accelergy-Project/accelergy"
"Accelergy-Project/timeloop-accelergy-exercises" -> "maestro-project/gamma"
"accel-sim/gpu-app-collection" -> "accel-sim/gpgpu-sim_distribution"
"accel-sim/gpgpu-sim_distribution" -> "accel-sim/gpu-app-collection"
"SingularityKChen/dl_accelerator" -> "PSAL-POSTECH/ONNXim" ["e"=1]
"OSU-STARLAB/UVM_benchmark" -> "tallendev/uvm-eval"
"TheNetAdmin/LENS-VANS" -> "TheNetAdmin/VANS"
"CMU-SAFARI/rowhammer" -> "CMU-SAFARI/ramulator" ["e"=1]
"car3s/IPCP_ISCA2020" -> "zeal4u/PMP"
"NVSL/OptaneStudy" -> "TheNetAdmin/LENS-VANS" ["e"=1]
"gem5/gem5-resources" -> "gem5bootcamp/gem5-bootcamp-env"
"adwaitjog/mafia" -> "CMU-SAFARI/Mosaic"
"neurosim/DNN_NeuroSim_V1.1" -> "neurosim/DNN_NeuroSim_V1.0"
"neurosim/DNN_NeuroSim_V2.0" -> "neurosim/DNN_NeuroSim_V1.0"
"neurosim/DNN_NeuroSim_V2.0" -> "neurosim/DNN_NeuroSim_V1.1"
"adam-smnk/Open-CIM-Compiler" -> "Zhaoshixin-sky/CIM-MLC"
"adam-smnk/Open-CIM-Compiler" -> "tud-ccc/Cinnamon"
"Accelergy-Project/timeloop-accelergy-tutorial" -> "Accelergy-Project/pytorch2timeloop-converter"
"NVIDIA-developer-blog/code-samples" -> "gpgpu-sim/gpgpu-sim_distribution" ["e"=1]
"kaitoukito/Computer-Science-Textbooks" -> "gpgpu-sim/gpgpu-sim_distribution" ["e"=1]
"kaitoukito/Computer-Science-Textbooks" -> "accel-sim/accel-sim-framework" ["e"=1]
"rose-compiler/rose" -> "gtcasl/gpuocelot" ["e"=1]
"scalesim-project/scale-sim-v2" -> "ARM-software/SCALE-Sim"
"scalesim-project/scale-sim-v2" -> "stonne-simulator/stonne"
"scalesim-project/scale-sim-v2" -> "NVlabs/timeloop"
"scalesim-project/scale-sim-v2" -> "Accelergy-Project/accelergy"
"scalesim-project/scale-sim-v2" -> "maestro-project/maestro"
"scalesim-project/scale-sim-v2" -> "BRTResearch/AIChip_Paper_List"
"scalesim-project/scale-sim-v2" -> "ucb-bar/gemmini" ["e"=1]
"scalesim-project/scale-sim-v2" -> "GATECH-EIC/ViTCoD" ["e"=1]
"scalesim-project/scale-sim-v2" -> "PrincetonUniversity/LLMCompass"
"scalesim-project/scale-sim-v2" -> "harvard-acc/gem5-aladdin"
"scalesim-project/scale-sim-v2" -> "diwu1990/uSystolic-Sim" ["e"=1]
"scalesim-project/scale-sim-v2" -> "PSAL-POSTECH/ONNXim"
"scalesim-project/scale-sim-v2" -> "accel-sim/accel-sim-framework"
"scalesim-project/scale-sim-v2" -> "umd-memsys/DRAMsim3"
"scalesim-project/scale-sim-v2" -> "georgia-tech-synergy-lab/SIGMA"
"sbeamer/gapbs" -> "s5z/zsim" ["e"=1]
"areuther/ai-accelerators" -> "georgia-tech-synergy-lab/SIGMA" ["e"=1]
"CMU-SAFARI/ramulator" -> "CMU-SAFARI/ramulator2"
"CMU-SAFARI/ramulator" -> "umd-memsys/DRAMsim3"
"CMU-SAFARI/ramulator" -> "CMU-SAFARI/ramulator-pim"
"CMU-SAFARI/ramulator" -> "umd-memsys/DRAMSim2"
"CMU-SAFARI/ramulator" -> "HewlettPackard/cacti"
"CMU-SAFARI/ramulator" -> "s5z/zsim"
"CMU-SAFARI/ramulator" -> "tukl-msd/DRAMSys" ["e"=1]
"CMU-SAFARI/ramulator" -> "tukl-msd/DRAMPower"
"CMU-SAFARI/ramulator" -> "gpgpu-sim/gpgpu-sim_distribution"
"CMU-SAFARI/ramulator" -> "accel-sim/accel-sim-framework"
"CMU-SAFARI/ramulator" -> "ARM-software/SCALE-Sim"
"CMU-SAFARI/ramulator" -> "harvard-acc/gem5-aladdin"
"CMU-SAFARI/ramulator" -> "vineodd/PIMSim"
"CMU-SAFARI/ramulator" -> "ucb-bar/gemmini" ["e"=1]
"CMU-SAFARI/ramulator" -> "gem5/gem5"
"CMU-SAFARI/Pythia" -> "CMU-SAFARI/Hermes"
"CMU-SAFARI/Pythia" -> "ChampSim/ChampSim"
"CMU-SAFARI/Pythia" -> "CMU-SAFARI/Pythia-HDL"
"CMU-SAFARI/Pythia" -> "zeal4u/PMP"
"CMU-SAFARI/Pythia" -> "CMU-SAFARI/Load-Inspector"
"CMU-SAFARI/Pythia" -> "agusnt/Berti-Artifact"
"CMU-SAFARI/Pythia" -> "Quangmire/ChampSim"
"Systems-ShiftLab/MultiPIM" -> "CMU-SAFARI/ramulator-pim"
"vetter/shoc" -> "gtcasl/gpuocelot" ["e"=1]
"davidepatti/noxim" -> "booksim/booksim2" ["e"=1]
"davidepatti/noxim" -> "harvard-acc/gem5-aladdin" ["e"=1]
"davidepatti/noxim" -> "Accelergy-Project/accelergy" ["e"=1]
"stonne-simulator/stonne" -> "scalesim-project/scale-sim-v2"
"stonne-simulator/stonne" -> "stonne-simulator/sst-elements-with-stonne"
"stonne-simulator/stonne" -> "stonne-simulator/omega"
"stonne-simulator/stonne" -> "Accelergy-Project/accelergy"
"stonne-simulator/stonne" -> "georgia-tech-synergy-lab/SIGMA"
"stonne-simulator/stonne" -> "harvard-acc/smaug"
"stonne-simulator/stonne" -> "ARM-software/SCALE-Sim"
"stonne-simulator/stonne" -> "maestro-project/maestro"
"stonne-simulator/stonne" -> "accel-sim/accel-sim-framework"
"stonne-simulator/stonne" -> "NVlabs/timeloop"
"ucb-bar/cosa" -> "maestro-project/gamma"
"ucb-bar/cosa" -> "xuanyoya/Interstellar-CNN-scheduler"
"ucb-bar/cosa" -> "kartik-hegde/mindmappings"
"ucb-bar/cosa" -> "NVlabs/timeloop"
"yonseicasl/NPUsim" -> "yonseicasl/Nebula"
"ekondis/mixbench" -> "accel-sim/accel-sim-framework" ["e"=1]
"gtcasl/gpuocelot" -> "NVlabs/SASSI"
"gtcasl/gpuocelot" -> "NVlabs/NVBit"
"gtcasl/gpuocelot" -> "vetter/shoc" ["e"=1]
"gtcasl/gpuocelot" -> "vtsynergy/CU2CL" ["e"=1]
"gtcasl/gpuocelot" -> "apc-llc/nvcc-llvm-ir"
"NVlabs/SASSI" -> "NVlabs/NVBit"
"NVlabs/SASSI" -> "PAA-NCIC/PPoPP2017_artifact" ["e"=1]
"CMU-SAFARI/prim-benchmarks" -> "upmem/dpu_demo"
"CMU-SAFARI/prim-benchmarks" -> "CMU-SAFARI/DAMOV"
"CMU-SAFARI/prim-benchmarks" -> "VIA-Research/uPIMulator"
"CMU-SAFARI/prim-benchmarks" -> "SAITPublic/PIMSimulator"
"CMU-SAFARI/prim-benchmarks" -> "CMU-SAFARI/SparseP"
"CMU-SAFARI/prim-benchmarks" -> "leesou/PIM-DL-ASPLOS"
"CMU-SAFARI/prim-benchmarks" -> "Systems-ShiftLab/MultiPIM"
"CMU-SAFARI/prim-benchmarks" -> "CMU-SAFARI/ramulator-pim"
"CMU-SAFARI/prim-benchmarks" -> "CMU-SAFARI/SimplePIM"
"CMU-SAFARI/prim-benchmarks" -> "AIS-SNU/PID-Comm" ["e"=1]
"CMU-SAFARI/prim-benchmarks" -> "upmem/upmem_llm_framework"
"pku-liang/TENET" -> "pku-liang/HASCO"
"pku-liang/TENET" -> "maestro-project/maestro"
"pku-liang/TENET" -> "pku-liang/TensorLib"
"tallendev/uvm-eval" -> "OSU-STARLAB/UVM_benchmark"
"CMU-SAFARI/DAMOV" -> "Systems-ShiftLab/MultiPIM"
"CMU-SAFARI/DAMOV" -> "CMU-SAFARI/prim-benchmarks"
"CMU-SAFARI/DAMOV" -> "CMU-SAFARI/ramulator-pim"
"google/distributed_point_functions" -> "facebookresearch/GPU-DPF" ["e"=1]
"Quangmire/ChampSim" -> "Quangmire/voyager"
"avadhpatel/marss" -> "stephand/ptlsim"
"joksas/nonideality-aware-mnn-training" -> "joksas/badcrossbar"
"yonseicasl/NeuroSpector" -> "yonseicasl/Nebula"
"FCAS-LAB/chiplet_simulators" -> "FCAS-LAB/Chiplet-Gem5-SharedMemory"
"FCAS-LAB/chiplet_simulators" -> "FCAS-LAB/Chiplet_Heterogeneous_newVersion"
"FCAS-LAB/chiplet_simulators" -> "spcl/rapidchiplet"
"FCAS-LAB/Chiplet-Gem5-SharedMemory" -> "FCAS-LAB/Chiplet_Heterogeneous_newVersion"
"FCAS-LAB/Chiplet-Gem5-SharedMemory" -> "FCAS-LAB/chiplet_simulators"
"TheNetAdmin/VANS" -> "TheNetAdmin/LENS-VANS"
"TheNetAdmin/VANS" -> "TheNetAdmin/LENS"
"Accelergy-Project/pytorch2timeloop-converter" -> "Accelergy-Project/timeloop-accelergy-tutorial"
"FCAS-LAB/Chiplet-GPGPU-Sim-MessagePassing" -> "FCAS-LAB/Chiplet_Heterogeneous_newVersion"
"parsa-epfl/cloudsuite" -> "s5z/zsim" ["e"=1]
"Quangmire/voyager" -> "Quangmire/ChampSim"
"lshpku/hwd-prefetch-study" -> "miaochenlu/learn_prefetcher"
"lshpku/hwd-prefetch-study" -> "agusnt/Berti-Artifact"
"sandialabs/cross-sim" -> "neurosim/DNN_NeuroSim_V2.1"
"sandialabs/cross-sim" -> "coreylammie/MemTorch"
"sandialabs/cross-sim" -> "neurosim/DNN_NeuroSim_V1.4"
"sandialabs/cross-sim" -> "thu-nics/MNSIM-2.0"
"sandialabs/cross-sim" -> "IBM/aihwkit"
"sandialabs/cross-sim" -> "hjq310/NeuroPack"
"sandialabs/cross-sim" -> "joksas/badcrossbar"
"sandialabs/cross-sim" -> "neurosim/MLP_NeuroSim_V3.0"
"cyjseagull/gem5-nvmain-hybrid-simulator" -> "AXLEproject/axle-zsim-nvmain"
"cyjseagull/gem5-nvmain-hybrid-simulator" -> "cyjseagull/SHMA"
"cyjseagull/gem5-nvmain-hybrid-simulator" -> "SEAL-UCSB/NVmain"
"mit-carbon/Graphite" -> "gthparch/macsim"
"shinezyy/micro-arch-training" -> "gem5/gem5" ["e"=1]
"shinezyy/micro-arch-training" -> "ChampSim/ChampSim" ["e"=1]
"MIPT-ILab/mipt-mips" -> "CMU-SAFARI/ramulator" ["e"=1]
"hjq310/NeuroPack" -> "joksas/badcrossbar"
"sstsimulator/sst-elements" -> "sstsimulator/sst-core"
"sstsimulator/sst-elements" -> "stonne-simulator/sst-elements-with-stonne"
"snipersim/snipersim" -> "sarchlab/mgpusim"
"sstsimulator/sst-core" -> "sstsimulator/sst-elements"
"sstsimulator/sst-core" -> "gthparch/macsim"
"gthparch/macsim" -> "macsimgt/macsim-public"
"gthparch/macsim" -> "Multi2Sim/multi2sim"
"gthparch/macsim" -> "harvard-acc/gem5-aladdin"
"intel/fpga-npu" -> "PSAL-POSTECH/ONNXim" ["e"=1]
"FCAS-LAB/Chiplet_Heterogeneous_newVersion" -> "FCAS-LAB/Chiplet-GPGPU-Sim-MessagePassing"
"gem5bootcamp/gem5-bootcamp-env" -> "gem5/gem5-resources"
"stonne-simulator/sst-elements-with-stonne" -> "stonne-simulator/omega"
"stonne-simulator/omega" -> "stonne-simulator/sst-elements-with-stonne"
"fengbintu/Neural-Networks-on-Silicon" -> "BRTResearch/AIChip_Paper_List" ["e"=1]
"fengbintu/Neural-Networks-on-Silicon" -> "ARM-software/SCALE-Sim" ["e"=1]
"fengbintu/Neural-Networks-on-Silicon" -> "NVlabs/timeloop" ["e"=1]
"fengbintu/Neural-Networks-on-Silicon" -> "HewlettPackard/cacti" ["e"=1]
"fengbintu/Neural-Networks-on-Silicon" -> "stanford-mast/nn_dataflow" ["e"=1]
"aliemo/transfomers-silicon-research" -> "scalesim-project/scale-sim-v2" ["e"=1]
"CMU-SAFARI/Hermes" -> "CMU-SAFARI/Load-Inspector"
"CMU-SAFARI/Hermes" -> "CMU-SAFARI/Pythia"
"THU-DSP-LAB/ventus-gpgpu" -> "accel-sim/accel-sim-framework" ["e"=1]
"THU-DSP-LAB/ventus-gpgpu" -> "gpgpu-sim/gpgpu-sim_distribution" ["e"=1]
"KULeuven-MICAS/zigzag" -> "KULeuven-MICAS/stream"
"KULeuven-MICAS/zigzag" -> "KULeuven-MICAS/DeFiNES"
"KULeuven-MICAS/zigzag" -> "NVlabs/timeloop"
"KULeuven-MICAS/zigzag" -> "ZigZag-Project/zigzag-v1"
"KULeuven-MICAS/stream" -> "KULeuven-MICAS/zigzag"
"powerjg/learning_gem5" -> "harvard-acc/gem5-aladdin"
"powerjg/learning_gem5" -> "gem5/gem5"
"powerjg/learning_gem5" -> "vineodd/PIMSim"
"powerjg/learning_gem5" -> "CMU-SAFARI/ramulator-pim"
"powerjg/learning_gem5" -> "HewlettPackard/mcpat"
"powerjg/learning_gem5" -> "lzyerste/gem5_doc"
"powerjg/learning_gem5" -> "s5z/zsim"
"powerjg/learning_gem5" -> "Multi2Sim/multi2sim"
"powerjg/learning_gem5" -> "tukl-msd/DRAMPower"
"facebookresearch/GPU-DPF" -> "VIA-Research/LazyDP"
"facebookresearch/GPU-DPF" -> "VIA-Research/dpsgd_profiler"
"facebookresearch/GPU-DPF" -> "ranggihwang/Pregated_MoE"
"facebookresearch/GPU-DPF" -> "VIA-Research/vTrain"
"Multi2Sim/multi2sim" -> "gthparch/macsim"
"SAITPublic/PIMSimulator" -> "scale-snu/attacc_simulator"
"SAITPublic/PIMSimulator" -> "casys-kaist/NeuPIMs"
"SAITPublic/PIMSimulator" -> "VIA-Research/uPIMulator"
"SAITPublic/PIMSimulator" -> "vineodd/PIMSim"
"SAITPublic/PIMSimulator" -> "CMU-SAFARI/prim-benchmarks"
"SAITPublic/PIMSimulator" -> "CMU-SAFARI/ramulator-pim"
"SAITPublic/PIMSimulator" -> "Systems-ShiftLab/MultiPIM"
"SAITPublic/PIMSimulator" -> "7bvcxz/PIMsim"
"SAITPublic/PIMSimulator" -> "umd-memsys/DRAMsim3"
"SAITPublic/PIMSimulator" -> "CMU-SAFARI/ramulator2"
"SAITPublic/PIMSimulator" -> "PrincetonUniversity/LLMCompass"
"SAITPublic/PIMSimulator" -> "SAITPublic/PIMLibrary"
"SAITPublic/PIMSimulator" -> "PSAL-POSTECH/ONNXim"
"SAITPublic/PIMSimulator" -> "Yufeng98/CENT"
"KULeuven-MICAS/DeFiNES" -> "KULeuven-MICAS/zigzag"
"KnowingNothing/compiler-and-arch" -> "NVlabs/timeloop" ["e"=1]
"cyjseagull/SHMA" -> "AXLEproject/axle-zsim-nvmain"
"cyjseagull/SHMA" -> "cyjseagull/gem5-nvmain-hybrid-simulator"
"cyjseagull/SHMA" -> "mileyan/network_project"
"cyjseagull/SHMA" -> "CGCL-codes/HSCC"
"Accelergy-Project/micro22-sparseloop-artifact" -> "maestro-project/gamma"
"amuramatsu/dwf" -> "knowm/waveforms4j"
"cmuparlay/PIM-tree" -> "leesou/PIM-DL-ASPLOS"
"fgr1986/vlsi_memristor_compact_model" -> "fgr1986/rram_multilevel_driver"
"baidu-research/DeepBench" -> "gpgpu-sim/gpgpu-sim_distribution" ["e"=1]
"CMU-SAFARI/ramulator2" -> "CMU-SAFARI/ramulator"
"CMU-SAFARI/ramulator2" -> "umd-memsys/DRAMsim3"
"CMU-SAFARI/ramulator2" -> "scale-snu/attacc_simulator"
"CMU-SAFARI/ramulator2" -> "PSAL-POSTECH/ONNXim"
"CMU-SAFARI/ramulator2" -> "tukl-msd/DRAMPower"
"CMU-SAFARI/ramulator2" -> "SAITPublic/PIMSimulator"
"CMU-SAFARI/ramulator2" -> "casys-kaist/NeuPIMs"
"CMU-SAFARI/ramulator2" -> "accel-sim/accel-sim-framework"
"CMU-SAFARI/ramulator2" -> "tukl-msd/DRAMSys" ["e"=1]
"CMU-SAFARI/ramulator2" -> "SET-Scheduling-Project/GEMINI-HPCA2024"
"CMU-SAFARI/ramulator2" -> "HewlettPackard/cacti"
"CMU-SAFARI/ramulator2" -> "NVlabs/timeloop"
"CMU-SAFARI/ramulator2" -> "scalesim-project/scale-sim-v2"
"CMU-SAFARI/ramulator2" -> "booksim/booksim2"
"CMU-SAFARI/ramulator2" -> "stonne-simulator/stonne"
"neurosim/DNN_NeuroSim_V1.4" -> "neurosim/DNN_NeuroSim_V2.1"
"cli99/llm-analysis" -> "PrincetonUniversity/LLMCompass" ["e"=1]
"sunxt99/PIMCOMP-NN" -> "wangxy-2000/pimsim-nn"
"sunxt99/PIMCOMP-NN" -> "Zhaoshixin-sky/CIM-MLC"
"miaochenlu/learn_prefetcher" -> "lshpku/hwd-prefetch-study"
"umd-memsys/DRAMSim2" -> "umd-memsys/DRAMsim3"
"umd-memsys/DRAMSim2" -> "harvard-acc/gem5-aladdin"
"umd-memsys/DRAMSim2" -> "CMU-SAFARI/ramulator"
"umd-memsys/DRAMSim2" -> "HewlettPackard/mcpat"
"umd-memsys/DRAMSim2" -> "s5z/zsim"
"umd-memsys/DRAMSim2" -> "tukl-msd/DRAMPower"
"umd-memsys/DRAMSim2" -> "vineodd/PIMSim"
"umd-memsys/DRAMSim2" -> "gthparch/macsim"
"umd-memsys/DRAMSim2" -> "harvard-acc/ALADDIN"
"umd-memsys/DRAMSim2" -> "HewlettPackard/cacti"
"umd-memsys/DRAMSim2" -> "ARM-software/SCALE-Sim"
"umd-memsys/DRAMSim2" -> "CMU-SAFARI/ramulator-pim"
"umd-memsys/DRAMSim2" -> "avadhpatel/marss"
"umd-memsys/DRAMSim2" -> "SAITPublic/PIMSimulator"
"umd-memsys/DRAMSim2" -> "booksim/booksim2"
"SET-Scheduling-Project/SET-ISCA2023" -> "SET-Scheduling-Project/GEMINI-HPCA2024"
"PSAL-POSTECH/ONNXim" -> "casys-kaist/NeuPIMs"
"PSAL-POSTECH/ONNXim" -> "casys-kaist/mNPUsim"
"PSAL-POSTECH/ONNXim" -> "scale-snu/attacc_simulator"
"PSAL-POSTECH/ONNXim" -> "SET-Scheduling-Project/GEMINI-HPCA2024"
"PSAL-POSTECH/ONNXim" -> "PSAL-POSTECH/M2NDP-public"
"PSAL-POSTECH/ONNXim" -> "VIA-Research/uPIMulator"
"PSAL-POSTECH/ONNXim" -> "yonseicasl/NPUsim"
"wangxy-2000/pimsim-nn" -> "sunxt99/PIMCOMP-NN"
"sarchlab/akita" -> "sarchlab/mgpusim"
"sarchlab/mgpusim" -> "sarchlab/akita"
"sarchlab/mgpusim" -> "accel-sim/accel-sim-framework"
"sarchlab/mgpusim" -> "snipersim/snipersim"
"sarchlab/mgpusim" -> "DebashisGanguly/gpgpu-sim_UVMSmart"
"sarchlab/mgpusim" -> "0x5ec1ab/gpu-tlb"
"casys-kaist/mNPUsim" -> "PSAL-POSTECH/ONNXim"
"PrincetonUniversity/muchiSim" -> "spcl/rapidchiplet"
"PrincetonUniversity/muchiSim" -> "FCAS-LAB/chiplet_simulators"
"PrincetonUniversity/muchiSim" -> "GT-CHIPS/gem5_chips"
"knowm/memristor-models-4-all" -> "fgr1986/vlsi_memristor_compact_model"
"knowm/memristor-models-4-all" -> "zhongruiwang/memristorCNN"
"knowm/memristor-models-4-all" -> "mladenovvaleri/Advanced-Memristor-Modeling-in-LTSpise"
"knowm/memristor-models-4-all" -> "joksas/badcrossbar"
"knowm/memristor-models-4-all" -> "thomastiotto/Memristor-Models"
"knowm/memristor-models-4-all" -> "coreylammie/MemTorch"
"knowm/memristor-models-4-all" -> "akdimitri/RRAM_COMPILER"
"knowm/memristor-models-4-all" -> "zhongruiwang/memristor_RL"
"knowm/memristor-models-4-all" -> "ianvermeulen/memristor_simulations"
"knowm/memristor-models-4-all" -> "knowm/memristor-discovery"
"knowm/memristor-models-4-all" -> "hjq310/NeuroPack"
"knowm/memristor-models-4-all" -> "knowm/jspice"
"microsoft/T-MAC" -> "PrincetonUniversity/LLMCompass" ["e"=1]
"enfiskutensykkel/ssd-gpu-dma" -> "platformxlab/G10" ["e"=1]
"VIA-Research/uPIMulator" -> "VIA-Research/LazyDP"
"VIA-Research/uPIMulator" -> "VIA-Research/dpsgd_profiler"
"VIA-Research/uPIMulator" -> "ranggihwang/Pregated_MoE"
"VIA-Research/uPIMulator" -> "VIA-Research/vTrain"
"VIA-Research/uPIMulator" -> "facebookresearch/GPU-DPF"
"VIA-Research/uPIMulator" -> "SAITPublic/PIMSimulator"
"VIA-Research/uPIMulator" -> "PSAL-POSTECH/ONNXim"
"VIA-Research/uPIMulator" -> "CMU-SAFARI/prim-benchmarks"
"VIA-Research/uPIMulator" -> "casys-kaist/NeuPIMs"
"VIA-Research/uPIMulator" -> "scale-snu/attacc_simulator"
"VIA-Research/uPIMulator" -> "miglopst/PIM_NDP_papers"
"VIA-Research/uPIMulator" -> "Yufeng98/CENT"
"Zhaoshixin-sky/CIM-MLC" -> "adam-smnk/Open-CIM-Compiler"
"stanford-mast/nn_dataflow" -> "xuanyoya/Interstellar-CNN-scheduler"
"stanford-mast/nn_dataflow" -> "ARM-software/SCALE-Sim"
"stanford-mast/nn_dataflow" -> "hsharma35/bitfusion" ["e"=1]
"stanford-mast/nn_dataflow" -> "jneless/EyerissF" ["e"=1]
"stanford-mast/nn_dataflow" -> "NVlabs/timeloop"
"stanford-mast/nn_dataflow" -> "harvard-acc/ALADDIN"
"stanford-mast/nn_dataflow" -> "maeri-project/MAERI_bsv"
"stanford-mast/nn_dataflow" -> "ucb-bar/cosa"
"stanford-mast/nn_dataflow" -> "georgia-tech-synergy-lab/SIGMA"
"stanford-mast/nn_dataflow" -> "SingularityKChen/dl_accelerator" ["e"=1]
"stanford-mast/nn_dataflow" -> "taoyilee/clacc" ["e"=1]
"stanford-mast/nn_dataflow" -> "maestro-project/maestro"
"stanford-mast/nn_dataflow" -> "HewlettPackard/cacti"
"stanford-mast/nn_dataflow" -> "hsharma35/dnnweaver2" ["e"=1]
"stanford-mast/nn_dataflow" -> "GATECH-EIC/AutoDNNchip" ["e"=1]
"SET-Scheduling-Project/GEMINI-HPCA2024" -> "SET-Scheduling-Project/SET-ISCA2023"
"SET-Scheduling-Project/GEMINI-HPCA2024" -> "yonseicasl/NPUsim"
"SET-Scheduling-Project/GEMINI-HPCA2024" -> "PSAL-POSTECH/ONNXim"
"ranggihwang/Pregated_MoE" -> "VIA-Research/LazyDP"
"ranggihwang/Pregated_MoE" -> "VIA-Research/dpsgd_profiler"
"ranggihwang/Pregated_MoE" -> "VIA-Research/vTrain"
"ranggihwang/Pregated_MoE" -> "facebookresearch/GPU-DPF"
"microsoft/vidur" -> "casys-kaist/LLMServingSim" ["e"=1]
"PrincetonUniversity/LLMCompass" -> "casys-kaist/NeuPIMs"
"PrincetonUniversity/LLMCompass" -> "PrincetonUniversity/muchiSim"
"PrincetonUniversity/LLMCompass" -> "mutinifni/splitwise-sim" ["e"=1]
"PrincetonUniversity/LLMCompass" -> "scalesim-project/scale-sim-v2"
"PrincetonUniversity/LLMCompass" -> "SAITPublic/PIMSimulator"
"PrincetonUniversity/LLMCompass" -> "abhibambhaniya/GenZ-LLM-Analyzer"
"PrincetonUniversity/LLMCompass" -> "PSAL-POSTECH/ONNXim"
"PrincetonUniversity/LLMCompass" -> "clevercool/ANT-Quantization" ["e"=1]
"mutinifni/splitwise-sim" -> "PrincetonUniversity/LLMCompass" ["e"=1]
"yuhc/gpu-rodinia" -> "accel-sim/accel-sim-framework" ["e"=1]
"yuhc/gpu-rodinia" -> "breagen/MachSuite" ["e"=1]
"harvard-acc/gem5-aladdin" -> "harvard-acc/ALADDIN"
"harvard-acc/gem5-aladdin" -> "harvard-acc/smaug"
"harvard-acc/gem5-aladdin" -> "TeCSAR-UNCC/gem5-SALAM"
"harvard-acc/gem5-aladdin" -> "HewlettPackard/mcpat"
"harvard-acc/gem5-aladdin" -> "umd-memsys/DRAMSim2"
"harvard-acc/gem5-aladdin" -> "GT-CHIPS/gem5_chips"
"harvard-acc/gem5-aladdin" -> "gthparch/macsim"
"harvard-acc/gem5-aladdin" -> "cdsc-github/parade-ara-simulator" ["e"=1]
"harvard-acc/gem5-aladdin" -> "scalesim-project/scale-sim-v2"
"harvard-acc/gem5-aladdin" -> "booksim/booksim2"
"harvard-acc/gem5-aladdin" -> "NVlabs/timeloop"
"harvard-acc/gem5-aladdin" -> "cwfletcher/buffets"
"harvard-acc/gem5-aladdin" -> "PSAL-POSTECH/ONNXim"
"harvard-acc/gem5-aladdin" -> "HewlettPackard/cacti"
"harvard-acc/gem5-aladdin" -> "ARM-software/SCALE-Sim"
"scale-snu/attacc_simulator" -> "casys-kaist/NeuPIMs"
"scale-snu/attacc_simulator" -> "Yufeng98/CENT"
"scale-snu/attacc_simulator" -> "SAITPublic/PIMSimulator"
"scale-snu/attacc_simulator" -> "PSAL-POSTECH/ONNXim"
"casys-kaist/NeuPIMs" -> "scale-snu/attacc_simulator"
"casys-kaist/NeuPIMs" -> "PSAL-POSTECH/ONNXim"
"casys-kaist/NeuPIMs" -> "SAITPublic/PIMSimulator"
"casys-kaist/NeuPIMs" -> "casys-kaist/LLMServingSim"
"casys-kaist/NeuPIMs" -> "casys-kaist/mNPUsim"
"leesou/PIM-DL-ASPLOS" -> "cmuparlay/PIM-tree"
"leesou/PIM-DL-ASPLOS" -> "AIS-SNU/PID-Comm" ["e"=1]
"EfficientMoE/MoE-Infinity" -> "ranggihwang/Pregated_MoE" ["e"=1]
"tud-ccc/Cinnamon" -> "adam-smnk/Open-CIM-Compiler"
"spcl/rapidchiplet" -> "FCAS-LAB/chiplet_simulators"
"spcl/rapidchiplet" -> "PrincetonUniversity/muchiSim"
"spcl/rapidchiplet" -> "mec-UMN/HISIM"
"mec-UMN/HISIM" -> "spcl/rapidchiplet"
"xuanyoya/Interstellar-CNN-scheduler" -> "stanford-mast/nn_dataflow"
"xuanyoya/Interstellar-CNN-scheduler" -> "MPSLab-ASU/dMazeRunner"
"xuanyoya/Interstellar-CNN-scheduler" -> "ucb-bar/cosa"
"xuanyoya/Interstellar-CNN-scheduler" -> "MPSLab-ASU/DiRAC"
"xuanyoya/Interstellar-CNN-scheduler" -> "maeri-project/MAERI_bsv"
"knowm/memristor-discovery" -> "knowm/waveforms4j"
"ferry-hhh/CXL-DMSim" -> "PSAL-POSTECH/M2NDP-public" ["e"=1]
"CGCL-codes/HSCC" -> "stanford-mast/zsim"
"CGCL-codes/HSCC" -> "cyjseagull/SHMA"
"shioyadan/Konata" -> "ChampSim/ChampSim" ["e"=1]
"shioyadan/Konata" -> "gem5/gem5" ["e"=1]
"shioyadan/Konata" -> "powerjg/learning_gem5" ["e"=1]
"VIA-Research/vTrain" -> "VIA-Research/LazyDP"
"VIA-Research/vTrain" -> "VIA-Research/dpsgd_profiler"
"VIA-Research/vTrain" -> "ranggihwang/Pregated_MoE"
"VIA-Research/vTrain" -> "facebookresearch/GPU-DPF"
"VIA-Research/vTrain" -> "VIA-Research/uPIMulator"
"UCSBarchlab/OpenTPU" -> "ARM-software/SCALE-Sim" ["e"=1]
"UCSBarchlab/OpenTPU" -> "stanford-mast/nn_dataflow" ["e"=1]
"UCSBarchlab/OpenTPU" -> "harvard-acc/gem5-aladdin" ["e"=1]
"casys-kaist/LLMServingSim" -> "casys-kaist/NeuPIMs"
"casys-kaist/LLMServingSim" -> "PSAL-POSTECH/ONNXim"
"casys-kaist/LLMServingSim" -> "scale-snu/attacc_simulator"
"casys-kaist/LLMServingSim" -> "PKUZHOU/NeoMem-MICRO-2024" ["e"=1]
"casys-kaist/LLMServingSim" -> "microsoft/vidur" ["e"=1]
"casys-kaist/LLMServingSim" -> "upmem/upmem_llm_framework"
"PSAL-POSTECH/M2NDP-public" -> "Yufeng98/CENT"
"abhibambhaniya/GenZ-LLM-Analyzer" -> "maestro-project/frame"
"upmem/dpu_demo" -> "CMU-SAFARI/prim-benchmarks"
"upmem/dpu_demo" -> "leesou/PIM-DL-ASPLOS"
"vineodd/PIMSim" -> "CMU-SAFARI/ramulator-pim"
"vineodd/PIMSim" -> "SAITPublic/PIMSimulator"
"vineodd/PIMSim" -> "Systems-ShiftLab/MultiPIM"
"vineodd/PIMSim" -> "SEAL-UCSB/NVSim"
"vineodd/PIMSim" -> "HewlettPackard/cacti"
"vineodd/PIMSim" -> "umd-memsys/DRAMSim2"
"vineodd/PIMSim" -> "CMU-SAFARI/PiDRAM"
"vineodd/PIMSim" -> "harvard-acc/gem5-aladdin"
"vineodd/PIMSim" -> "CMU-SAFARI/IMPICA"
"vineodd/PIMSim" -> "s5z/zsim"
"vineodd/PIMSim" -> "ARM-software/SCALE-Sim"
"vineodd/PIMSim" -> "thu-nics/MNSIM-2.0"
"vineodd/PIMSim" -> "umd-memsys/DRAMsim3"
"vineodd/PIMSim" -> "powerjg/learning_gem5"
"vineodd/PIMSim" -> "HewlettPackard/mcpat"
"MoE-Inf/awesome-moe-inference" -> "ranggihwang/Pregated_MoE" ["e"=1]
"basicmi/AI-Chip" -> "BRTResearch/AIChip_Paper_List" ["e"=1]
"basicmi/AI-Chip" -> "ARM-software/SCALE-Sim" ["e"=1]
"basicmi/AI-Chip" -> "stanford-mast/nn_dataflow" ["e"=1]
"basicmi/AI-Chip" -> "gpgpu-sim/gpgpu-sim_distribution" ["e"=1]
"ChampSim/ChampSim" -> "CMU-SAFARI/Pythia"
"ChampSim/ChampSim" -> "harvard-acc/gem5-aladdin"
"ChampSim/ChampSim" -> "HewlettPackard/cacti"
"ChampSim/ChampSim" -> "gem5/gem5"
"ChampSim/ChampSim" -> "CMU-SAFARI/ramulator"
"ChampSim/ChampSim" -> "shioyadan/Konata" ["e"=1]
"ChampSim/ChampSim" -> "s5z/zsim"
"ChampSim/ChampSim" -> "HewlettPackard/mcpat"
"ChampSim/ChampSim" -> "shinezyy/micro-arch-training" ["e"=1]
"ChampSim/ChampSim" -> "snipersim/snipersim"
"ChampSim/ChampSim" -> "umd-memsys/DRAMsim3"
"ChampSim/ChampSim" -> "scalesim-project/scale-sim-v2"
"ChampSim/ChampSim" -> "CMU-SAFARI/ramulator2"
"ChampSim/ChampSim" -> "powerjg/learning_gem5"
"ChampSim/ChampSim" -> "lshpku/hwd-prefetch-study"
"arm-university/arm-gem5-rsk" -> "gem5-gpu/gem5-gpu" ["e"=1]
"arm-university/arm-gem5-rsk" -> "HewlettPackard/mcpat"
"arm-university/arm-gem5-rsk" -> "harvard-acc/gem5-aladdin"
"arm-university/arm-gem5-rsk" -> "gem5/gem5-resources"
"Yufeng98/CENT" -> "PSAL-POSTECH/M2NDP-public"
"Yufeng98/CENT" -> "scale-snu/attacc_simulator"
"Yufeng98/CENT" -> "CMU-SAFARI/Sectored-DRAM"
"Yufeng98/CENT" -> "arkhadem/aim_simulator"
"Jokeren/Awesome-GPU" -> "accel-sim/accel-sim-framework" ["e"=1]
"Jokeren/Awesome-GPU" -> "NVlabs/NVBit" ["e"=1]
"DawnCarol/DawnCarol" -> "lshpku/hwd-prefetch-study"
"zhongruiwang/memristor_RL" -> "zhongruiwang/memristorCNN"
"tukl-msd/gem5.TnT" -> "gem5/gem5-resources"
"neurosim/MLP_NeuroSim_V1.0" -> "neurosim/MLP_NeuroSim_V2.0"
"neurosim/MLP_NeuroSim_V1.0" -> "neurosim/DNN_NeuroSim_V1.0"
"Aayush-Ankit/puma-simulator" -> "illinois-impact/puma-compiler"
"Aayush-Ankit/puma-simulator" -> "adam-smnk/Open-CIM-Compiler"
"Aayush-Ankit/puma-simulator" -> "Zhaoshixin-sky/CIM-MLC"
"ElimuMichael/Memristor" -> "SaharCarmel/Memristor-NN"
"moderngpu/moderngpu" ["l"="36.696,0.93", "c"=112]
"gpgpu-sim/gpgpu-sim_distribution" ["l"="31.034,-2.965"]
"ARM-software/SCALE-Sim" ["l"="31.037,-2.894"]
"scalesim-project/scale-sim-v2" ["l"="31.027,-2.921"]
"stanford-mast/nn_dataflow" ["l"="31.021,-2.853"]
"NVlabs/timeloop" ["l"="31.019,-2.883"]
"maestro-project/maestro" ["l"="30.994,-2.865"]
"HewlettPackard/cacti" ["l"="31.062,-2.902"]
"Accelergy-Project/accelergy" ["l"="31.009,-2.87"]
"harvard-acc/ALADDIN" ["l"="31.04,-2.87"]
"stonne-simulator/stonne" ["l"="30.997,-2.903"]
"jneless/EyerissF" ["l"="31.91,-2.834", "c"=212]
"harvard-acc/gem5-aladdin" ["l"="31.041,-2.91"]
"BRTResearch/AIChip_Paper_List" ["l"="31.013,-2.907"]
"fengbintu/Neural-Networks-on-Silicon" ["l"="31.792,-2.807", "c"=212]
"booksim/booksim2" ["l"="31.041,-2.936"]
"harvard-acc/smaug" ["l"="31.004,-2.883"]
"CMU-SAFARI/ramulator" ["l"="31.08,-2.936"]
"s5z/zsim" ["l"="31.092,-2.917"]
"CMU-SAFARI/ramulator-pim" ["l"="31.118,-2.96"]
"umd-memsys/DRAMSim2" ["l"="31.074,-2.913"]
"vineodd/PIMSim" ["l"="31.112,-2.902"]
"HewlettPackard/mcpat" ["l"="31.07,-2.89"]
"umd-memsys/DRAMsim3" ["l"="31.065,-2.933"]
"Systems-ShiftLab/MultiPIM" ["l"="31.133,-2.964"]
"snipersim/snipersim" ["l"="31.115,-2.916"]
"gem5/gem5" ["l"="31.094,-2.962"]
"cyjseagull/SHMA" ["l"="31.204,-2.904"]
"MPSLab-ASU/dMazeRunner" ["l"="30.951,-2.787"]
"MPSLab-ASU/DiRAC" ["l"="30.968,-2.783"]
"uvahotspot/HotSpot" ["l"="31,-2.927"]
"bu-icsg/TAP-2.5D" ["l"="30.952,-2.926"]
"PrincetonUniversity/muchiSim" ["l"="30.994,-2.984"]
"RRZE-HPC/gpu-benches" ["l"="36.839,0.972", "c"=112]
"accel-sim/accel-sim-framework" ["l"="31.017,-2.941"]
"ucb-bar/gemmini" ["l"="31.825,-3.938", "c"=188]
"cloudcores/CuAssembler" ["l"="36.931,0.931", "c"=112]
"NVlabs/NVBit" ["l"="30.968,-2.981"]
"neurosim/MLP_NeuroSim_V3.0" ["l"="31.191,-2.773"]
"neurosim/DNN_NeuroSim_V2.1" ["l"="31.207,-2.776"]
"thu-nics/MNSIM-2.0" ["l"="31.2,-2.794"]
"SEAL-UCSB/NVSim" ["l"="31.163,-2.828"]
"neurosim/MLP_NeuroSim_V1.0" ["l"="31.223,-2.804"]
"neurosim/DNN_NeuroSim_V1.3" ["l"="31.176,-2.791"]
"neurosim/DNN_NeuroSim_V2.0" ["l"="31.186,-2.807"]
"neurosim/DNN_NeuroSim_V1.4" ["l"="31.196,-2.757"]
"sandialabs/cross-sim" ["l"="31.207,-2.746"]
"Aayush-Ankit/puma-simulator" ["l"="31.228,-2.778"]
"thuime/XPEsim" ["l"="31.159,-2.794"]
"coreylammie/MemTorch" ["l"="31.214,-2.726"]
"neurosim/3D_NeuroSim_V1.0" ["l"="31.213,-2.76"]
"Accelergy-Project/timeloop-accelergy-exercises" ["l"="31.006,-2.842"]
"ucb-bar/cosa" ["l"="30.993,-2.839"]
"KULeuven-MICAS/zigzag" ["l"="30.959,-2.856"]
"Accelergy-Project/accelergy-timeloop-infrastructure" ["l"="30.985,-2.851"]
"CMU-SAFARI/ramulator2" ["l"="31.06,-2.954"]
"tukl-msd/DRAMSys" ["l"="31.464,-3.644", "c"=188]
"SAITPublic/PIMSimulator" ["l"="31.095,-2.984"]
"tukl-msd/DRAMPower" ["l"="31.088,-2.9"]
"PSAL-POSTECH/ONNXim" ["l"="31.068,-2.992"]
"CMU-SAFARI/DAMOV" ["l"="31.153,-2.981"]
"CMU-SAFARI/IMPICA" ["l"="31.149,-2.95"]
"CMU-SAFARI/PiDRAM" ["l"="31.155,-2.927"]
"miglopst/PIM_NDP_papers" ["l"="31.138,-2.986"]
"CMU-SAFARI/prim-benchmarks" ["l"="31.142,-3.008"]
"VIA-Research/uPIMulator" ["l"="31.114,-3.023"]
"MPSLab-ASU/ccf" ["l"="32.714,-3.403", "c"=180]
"taoyilee/clacc" ["l"="31.899,-2.803", "c"=212]
"NVIDIA/open-gpu-doc" ["l"="7.577,-11.275", "c"=515]
"spcl/dace" ["l"="37.354,1.1", "c"=112]
"ONNC/onnc" ["l"="31.903,-2.926", "c"=212]
"maeri-project/MAERI_bsv_isca2018" ["l"="30.989,-2.77"]
"hyoukjun/MAESTRO" ["l"="30.979,-2.746"]
"maeri-project/MAERI_bsv" ["l"="31.007,-2.807"]
"SEAL-UCSB/NVmain" ["l"="31.211,-2.853"]
"neurosim/DNN_NeuroSim_V1.0" ["l"="31.203,-2.814"]
"CRAFT-THU/XB-Sim" ["l"="31.172,-2.763"]
"stevenygd/WAGE.pytorch" ["l"="52.591,33.551", "c"=271]
"zhongruiwang/memristorCNN" ["l"="31.214,-2.669"]
"zhongruiwang/memristor_RL" ["l"="31.214,-2.65"]
"ianvermeulen/memristor_simulations" ["l"="31.23,-2.648"]
"ElimuMichael/Memristor" ["l"="31.193,-2.692"]
"sld-columbia/esp" ["l"="31.654,-3.772", "c"=188]
"nvdla/sw" ["l"="31.906,-2.901", "c"=212]
"maestro-project/gamma" ["l"="30.973,-2.825"]
"pku-liang/TENET" ["l"="30.938,-2.832"]
"pku-liang/TileFlow" ["l"="37.029,1.134", "c"=112]
"maestro-project/confuciux" ["l"="30.959,-2.835"]
"hsharma35/dnnweaver2" ["l"="31.753,-2.793", "c"=212]
"GT-CHIPS/gem5_chips" ["l"="30.986,-2.961"]
"FCAS-LAB/Chiplet-Gem5-SharedMemory" ["l"="30.958,-3.005"]
"FCAS-LAB/chiplet_simulators" ["l"="30.975,-3.002"]
"cornell-zhang/rosetta" ["l"="31.645,-2.612", "c"=212]
"breagen/MachSuite" ["l"="31.04,-2.829"]
"NVlabs/matchlib" ["l"="31.482,-3.654", "c"=188]
"davidepatti/noxim" ["l"="31.479,-3.688", "c"=188]
"booksim/booksim" ["l"="31.002,-2.955"]
"spcl/rapidchiplet" ["l"="31.002,-3.002"]
"hsharma35/bitfusion" ["l"="31.746,-2.887", "c"=212]
"hyoukjun/DesignCNNAccelerators" ["l"="31.007,-2.761"]
"georgia-tech-synergy-lab/maestro-stable" ["l"="31.003,-2.778"]
"DebashisGanguly/gpgpu-sim_UVMSmart" ["l"="30.986,-3.015"]
"OSU-STARLAB/UVM_benchmark" ["l"="30.973,-3.043"]
"platformxlab/G10" ["l"="30.983,-3.057"]
"tallendev/uvm-eval" ["l"="30.959,-3.047"]
"CMU-SAFARI/Mosaic" ["l"="30.958,-3.073"]
"nvidia-compiler-sdk/nvvmir-samples" ["l"="30.824,-3.074"]
"nvidia-compiler-sdk/pynvvm" ["l"="30.797,-3.091"]
"apc-llc/nvcc-llvm-ir" ["l"="30.851,-3.056"]
"envytools/envytools" ["l"="7.498,-11.277", "c"=515]
"NVlabs/SASSI" ["l"="30.934,-3.006"]
"adwaitjog/mafia" ["l"="30.946,-3.095"]
"TheNetAdmin/LENS-VANS" ["l"="31.243,-2.856"]
"cyjseagull/gem5-nvmain-hybrid-simulator" ["l"="31.218,-2.88"]
"TheNetAdmin/VANS" ["l"="31.258,-2.858"]
"georgia-tech-synergy-lab/SIGMA" ["l"="30.977,-2.882"]
"yonseicasl/Kite" ["l"="31.068,-3.137"]
"yonseicasl/Nebula" ["l"="31.06,-3.111"]
"neurosim/MLP_NeuroSim_V2.0" ["l"="31.244,-2.814"]
"neurosim/DNN_NeuroSim_V1.1" ["l"="31.199,-2.829"]
"illinois-impact/puma-compiler" ["l"="31.257,-2.767"]
"nvidia-compiler-sdk/hsnvvm" ["l"="30.782,-3.103"]
"TeCSAR-UNCC/gem5-SALAM" ["l"="30.993,-2.889"]
"VerticalResearchGroup/miaow" ["l"="31.907,-3.836", "c"=188]
"rajesh-s/computer-architecture-and-systems-resources" ["l"="32.74,-4.634", "c"=972]
"ChampSim/ChampSim" ["l"="31.123,-2.938"]
"ucb-bar/chipyard" ["l"="31.795,-3.901", "c"=188]
"riscv-boom/riscv-boom" ["l"="31.794,-3.871", "c"=188]
"powerjg/learning_gem5" ["l"="31.102,-2.931"]
"riscv-software-src/riscv-isa-sim" ["l"="31.742,-3.857", "c"=188]
"chipsalliance/chisel" ["l"="31.824,-3.917", "c"=188]
"chipsalliance/rocket-chip" ["l"="31.814,-3.883", "c"=188]
"openhwgroup/cva6" ["l"="31.828,-3.832", "c"=188]
"verilator/verilator" ["l"="32.845,-3.656", "c"=180]
"KastnerRG/spector" ["l"="63.971,-2.184", "c"=477]
"lana555/dynamatic" ["l"="31.602,-2.503", "c"=212]
"NervanaSystems/maxas" ["l"="36.924,0.876", "c"=112]
"arm-university/arm-gem5-rsk" ["l"="31.074,-2.842"]
"akdimitri/RRAM_COMPILER" ["l"="31.248,-2.691"]
"knowm/memristor-models-4-all" ["l"="31.233,-2.675"]
"thomastiotto/Memristor-Models" ["l"="31.214,-2.691"]
"IBM/aihwkit" ["l"="31.23,-2.751"]
"joksas/badcrossbar" ["l"="31.216,-2.706"]
"fgr1986/vlsi_memristor_compact_model" ["l"="31.2,-2.676"]
"elliothe/pytorx" ["l"="31.258,-2.705"]
"Tsinghua-LEMON-Lab/Reservoir-computing" ["l"="31.247,-2.718"]
"wangxy-2000/pimsim-nn" ["l"="31.262,-2.808"]
"Zhaoshixin-sky/CIM-MLC" ["l"="31.255,-2.791"]
"Zhu-Zhenhua/MNSIM_Python" ["l"="31.227,-2.821"]
"mit-emze/cimloop" ["l"="31.243,-2.778"]
"IBM/analog-nas" ["l"="31.271,-2.737"]
"CMU-SAFARI/VAMPIRE" ["l"="31.111,-2.855"]
"tukl-msd/DRAMSpec" ["l"="31.116,-2.872"]
"vortexgpgpu/vortex" ["l"="31.89,-3.847", "c"=188]
"jbush001/NyuziProcessor" ["l"="31.931,-3.842", "c"=188]
"THU-DSP-LAB/ventus-gpgpu" ["l"="31.886,-3.914", "c"=188]
"basicmi/AI-Chip" ["l"="37.291,0.775", "c"=112]
"SingularityKChen/dl_accelerator" ["l"="31.89,-2.817", "c"=212]
"hpsresearchgroup/scarab" ["l"="31.286,-3.002"]
"agusnt/Berti-Artifact" ["l"="31.248,-2.985"]
"joksas/nonideality-aware-mnn-training" ["l"="31.231,-2.696"]
"harvard-acc/LLVM-Tracer" ["l"="31.057,-2.818"]
"sfu-arch/SpGEMM" ["l"="30.934,-2.88"]
"sarchlab/mgpusim" ["l"="31.05,-2.924"]
"accel-sim/gpu-app-collection" ["l"="30.963,-2.955"]
"gthparch/macsim" ["l"="30.983,-2.94"]
"accel-sim/gpgpu-sim_distribution" ["l"="30.952,-2.964"]
"astra-sim/astra-sim" ["l"="1.941,14.578", "c"=572]
"apache/tvm-vta" ["l"="31.787,-2.772", "c"=212]
"Accelergy-Project/micro22-sparseloop-artifact" ["l"="30.955,-2.805"]
"ysshao/WIICA" ["l"="31.062,-2.791"]
"shinpei0208/gdev" ["l"="7.417,-11.263", "c"=515]
"ZigZag-Project/zigzag-v1" ["l"="30.932,-2.808"]
"xuanyoya/Interstellar-CNN-scheduler" ["l"="30.992,-2.819"]
"IBM/AccDNN" ["l"="31.804,-2.773", "c"=212]
"utcs-scea/altis" ["l"="64.018,-2.075", "c"=477]
"gtcasl/gpuocelot" ["l"="30.907,-3.02"]
"daadaada/turingas" ["l"="36.95,0.894", "c"=112]
"NVlabs/nvbitfi" ["l"="30.908,-2.986"]
"sderek/CUDAAdvisor" ["l"="30.929,-2.984"]
"UCLA-VAST/AutoSA" ["l"="31.686,-2.589", "c"=212]
"Accelergy-Project/timeloop-accelergy-tutorial" ["l"="31.02,-2.791"]
"CMU-SAFARI/rowhammer" ["l"="-17.212,-41.868", "c"=1132]
"car3s/IPCP_ISCA2020" ["l"="31.245,-3.05"]
"zeal4u/PMP" ["l"="31.228,-3.026"]
"NVSL/OptaneStudy" ["l"="1.592,13.33", "c"=376]
"gem5/gem5-resources" ["l"="31.074,-2.763"]
"gem5bootcamp/gem5-bootcamp-env" ["l"="31.081,-2.74"]
"adam-smnk/Open-CIM-Compiler" ["l"="31.275,-2.778"]
"tud-ccc/Cinnamon" ["l"="31.299,-2.773"]
"Accelergy-Project/pytorch2timeloop-converter" ["l"="31.027,-2.77"]
"NVIDIA-developer-blog/code-samples" ["l"="36.723,0.91", "c"=112]
"kaitoukito/Computer-Science-Textbooks" ["l"="31.92,-3.931", "c"=188]
"rose-compiler/rose" ["l"="-22.073,-18.657", "c"=763]
"GATECH-EIC/ViTCoD" ["l"="32.08,-2.769", "c"=212]
"PrincetonUniversity/LLMCompass" ["l"="31.044,-2.994"]
"diwu1990/uSystolic-Sim" ["l"="32.185,-2.793", "c"=212]
"sbeamer/gapbs" ["l"="51.468,15.303", "c"=1231]
"areuther/ai-accelerators" ["l"="-18.599,-43.236", "c"=55]
"CMU-SAFARI/Pythia" ["l"="31.203,-2.986"]
"CMU-SAFARI/Hermes" ["l"="31.227,-3.003"]
"CMU-SAFARI/Pythia-HDL" ["l"="31.228,-2.985"]
"CMU-SAFARI/Load-Inspector" ["l"="31.213,-3.013"]
"Quangmire/ChampSim" ["l"="31.248,-3.016"]
"vetter/shoc" ["l"="64.082,-2.092", "c"=477]
"stonne-simulator/sst-elements-with-stonne" ["l"="30.934,-2.903"]
"stonne-simulator/omega" ["l"="30.952,-2.899"]
"kartik-hegde/mindmappings" ["l"="30.979,-2.801"]
"yonseicasl/NPUsim" ["l"="31.06,-3.059"]
"ekondis/mixbench" ["l"="64.154,-1.996", "c"=477]
"vtsynergy/CU2CL" ["l"="64.409,-1.977", "c"=477]
"PAA-NCIC/PPoPP2017_artifact" ["l"="36.968,0.879", "c"=112]
"upmem/dpu_demo" ["l"="31.163,-3.03"]
"CMU-SAFARI/SparseP" ["l"="31.167,-3.057"]
"leesou/PIM-DL-ASPLOS" ["l"="31.182,-3.042"]
"CMU-SAFARI/SimplePIM" ["l"="31.176,-3.018"]
"AIS-SNU/PID-Comm" ["l"="52.948,33.473", "c"=271]
"upmem/upmem_llm_framework" ["l"="31.129,-3.035"]
"pku-liang/HASCO" ["l"="30.897,-2.825"]
"pku-liang/TensorLib" ["l"="30.901,-2.802"]
"google/distributed_point_functions" ["l"="51.675,1.342", "c"=378]
"facebookresearch/GPU-DPF" ["l"="31.138,-3.07"]
"Quangmire/voyager" ["l"="31.267,-3.03"]
"avadhpatel/marss" ["l"="31.142,-2.876"]
"stephand/ptlsim" ["l"="31.17,-2.869"]
"yonseicasl/NeuroSpector" ["l"="31.05,-3.139"]
"FCAS-LAB/Chiplet_Heterogeneous_newVersion" ["l"="30.948,-3.028"]
"TheNetAdmin/LENS" ["l"="31.285,-2.861"]
"FCAS-LAB/Chiplet-GPGPU-Sim-MessagePassing" ["l"="30.934,-3.045"]
"parsa-epfl/cloudsuite" ["l"="63.337,-12.538", "c"=1127]
"lshpku/hwd-prefetch-study" ["l"="31.223,-2.958"]
"miaochenlu/learn_prefetcher" ["l"="31.245,-2.957"]
"hjq310/NeuroPack" ["l"="31.23,-2.71"]
"AXLEproject/axle-zsim-nvmain" ["l"="31.231,-2.896"]
"mit-carbon/Graphite" ["l"="30.918,-2.951"]
"shinezyy/micro-arch-training" ["l"="31.865,-4.01", "c"=188]
"MIPT-ILab/mipt-mips" ["l"="31.529,-3.591", "c"=188]
"sstsimulator/sst-elements" ["l"="30.885,-2.907"]
"sstsimulator/sst-core" ["l"="30.902,-2.924"]
"macsimgt/macsim-public" ["l"="30.946,-2.941"]
"Multi2Sim/multi2sim" ["l"="31.009,-2.971"]
"intel/fpga-npu" ["l"="31.992,-2.799", "c"=212]
"aliemo/transfomers-silicon-research" ["l"="32.038,-2.756", "c"=212]
"KULeuven-MICAS/stream" ["l"="30.922,-2.846"]
"KULeuven-MICAS/DeFiNES" ["l"="30.931,-2.859"]
"lzyerste/gem5_doc" ["l"="31.143,-2.911"]
"VIA-Research/LazyDP" ["l"="31.114,-3.064"]
"VIA-Research/dpsgd_profiler" ["l"="31.119,-3.056"]
"ranggihwang/Pregated_MoE" ["l"="31.123,-3.074"]
"VIA-Research/vTrain" ["l"="31.132,-3.054"]
"scale-snu/attacc_simulator" ["l"="31.091,-3.008"]
"casys-kaist/NeuPIMs" ["l"="31.077,-3.006"]
"7bvcxz/PIMsim" ["l"="31.122,-3.001"]
"SAITPublic/PIMLibrary" ["l"="31.112,-3.006"]
"Yufeng98/CENT" ["l"="31.094,-3.042"]
"KnowingNothing/compiler-and-arch" ["l"="36.989,1.015", "c"=112]
"mileyan/network_project" ["l"="31.224,-2.92"]
"CGCL-codes/HSCC" ["l"="31.244,-2.911"]
"amuramatsu/dwf" ["l"="31.278,-2.565"]
"knowm/waveforms4j" ["l"="31.267,-2.59"]
"cmuparlay/PIM-tree" ["l"="31.197,-3.06"]
"fgr1986/rram_multilevel_driver" ["l"="31.184,-2.651"]
"baidu-research/DeepBench" ["l"="37.226,0.818", "c"=112]
"SET-Scheduling-Project/GEMINI-HPCA2024" ["l"="31.05,-3.026"]
"cli99/llm-analysis" ["l"="39.06,-0.448", "c"=39]
"sunxt99/PIMCOMP-NN" ["l"="31.286,-2.805"]
"SET-Scheduling-Project/SET-ISCA2023" ["l"="31.041,-3.057"]
"casys-kaist/mNPUsim" ["l"="31.065,-3.022"]
"PSAL-POSTECH/M2NDP-public" ["l"="31.074,-3.042"]
"sarchlab/akita" ["l"="31.062,-2.873"]
"0x5ec1ab/gpu-tlb" ["l"="31.088,-2.868"]
"mladenovvaleri/Advanced-Memristor-Modeling-in-LTSpise" ["l"="31.248,-2.647"]
"knowm/memristor-discovery" ["l"="31.252,-2.623"]
"knowm/jspice" ["l"="31.269,-2.655"]
"microsoft/T-MAC" ["l"="38.909,-0.291", "c"=39]
"enfiskutensykkel/ssd-gpu-dma" ["l"="1.764,14.462", "c"=572]
"GATECH-EIC/AutoDNNchip" ["l"="31.713,-2.853", "c"=212]
"microsoft/vidur" ["l"="39.084,-0.418", "c"=39]
"casys-kaist/LLMServingSim" ["l"="31.089,-3.028"]
"mutinifni/splitwise-sim" ["l"="39.137,-0.413", "c"=39]
"abhibambhaniya/GenZ-LLM-Analyzer" ["l"="31.019,-3.062"]
"clevercool/ANT-Quantization" ["l"="31.727,-2.947", "c"=212]
"yuhc/gpu-rodinia" ["l"="64.06,-2.065", "c"=477]
"cdsc-github/parade-ara-simulator" ["l"="32.034,-4.088", "c"=188]
"cwfletcher/buffets" ["l"="30.97,-2.913"]
"EfficientMoE/MoE-Infinity" ["l"="39.001,-0.372", "c"=39]
"mec-UMN/HISIM" ["l"="30.999,-3.032"]
"ferry-hhh/CXL-DMSim" ["l"="1.718,14.173", "c"=572]
"stanford-mast/zsim" ["l"="31.277,-2.913"]
"shioyadan/Konata" ["l"="31.696,-3.731", "c"=188]
"UCSBarchlab/OpenTPU" ["l"="31.938,-2.787", "c"=212]
"PKUZHOU/NeoMem-MICRO-2024" ["l"="1.737,14.182", "c"=572]
"maestro-project/frame" ["l"="31.01,-3.097"]
"MoE-Inf/awesome-moe-inference" ["l"="38.981,-0.359", "c"=39]
"gem5-gpu/gem5-gpu" ["l"="32.106,-4.126", "c"=188]
"CMU-SAFARI/Sectored-DRAM" ["l"="31.085,-3.071"]
"arkhadem/aim_simulator" ["l"="31.097,-3.079"]
"Jokeren/Awesome-GPU" ["l"="36.866,0.965", "c"=112]
"DawnCarol/DawnCarol" ["l"="31.278,-2.962"]
"tukl-msd/gem5.TnT" ["l"="31.065,-2.72"]
"SaharCarmel/Memristor-NN" ["l"="31.173,-2.676"]
}