digraph G {
"barbagroup/CFDPython" -> "barbagroup/AeroPython" ["e"=1]
"barbagroup/CFDPython" -> "UnnamedMoose/BasicOpenFOAMProgrammingTutorials"
"barbagroup/CFDPython" -> "su2code/SU2" ["e"=1]
"barbagroup/CFDPython" -> "numerical-mooc/numerical-mooc"
"barbagroup/CFDPython" -> "surajp92/CFD_Julia" ["e"=1]
"barbagroup/CFDPython" -> "ProjectPhysX/FluidX3D"
"barbagroup/CFDPython" -> "OpenFOAM/OpenFOAM-dev"
"barbagroup/CFDPython" -> "tum-pbs/PhiFlow" ["e"=1]
"barbagroup/CFDPython" -> "thu-zhanghl/CFD101"
"barbagroup/CFDPython" -> "google/jax-cfd" ["e"=1]
"barbagroup/CFDPython" -> "PyFR/PyFR" ["e"=1]
"barbagroup/CFDPython" -> "lululxvi/deepxde" ["e"=1]
"barbagroup/CFDPython" -> "maziarraissi/PINNs" ["e"=1]
"barbagroup/CFDPython" -> "jaheyns/CfdOF"
"barbagroup/CFDPython" -> "nschloe/meshio" ["e"=1]
"su2code/SU2" -> "OpenFOAM/OpenFOAM-dev" ["e"=1]
"su2code/SU2" -> "UnnamedMoose/BasicOpenFOAMProgrammingTutorials" ["e"=1]
"su2code/SU2" -> "barbagroup/CFDPython" ["e"=1]
"CoolProp/CoolProp" -> "UnnamedMoose/BasicOpenFOAMProgrammingTutorials" ["e"=1]
"DLR-RY/VoFLibrary" -> "DLR-RY/TwoPhaseFlow"
"DLR-RY/VoFLibrary" -> "isoAdvector/isoAdvector"
"DLR-RY/VoFLibrary" -> "DLR-RY/caseFoam"
"maziarraissi/HFM" -> "thunil/Deep-Flow-Prediction" ["e"=1]
"maziarraissi/HFM" -> "AndreWeiner/machine-learning-applied-to-cfd" ["e"=1]
"mrklein/openfoam-os-x" -> "BrushXue/OpenFOAM-AppleM1"
"mrklein/openfoam-os-x" -> "gerlero/openfoam-app"
"ZichaoLong/PDE-Net" -> "byungsook/deep-fluids" ["e"=1]
"barbagroup/AeroPython" -> "barbagroup/CFDPython" ["e"=1]
"barbagroup/AeroPython" -> "numerical-mooc/numerical-mooc" ["e"=1]
"barbagroup/AeroPython" -> "UnnamedMoose/BasicOpenFOAMProgrammingTutorials" ["e"=1]
"barbagroup/AeroPython" -> "loliverhennigh/Computational-Fluid-Dynamics-Machine-Learning-Examples" ["e"=1]
"tkeskita/mesh_heal" -> "tkeskita/unstructured_grids"
"ChenguangZhang/sdfibm" -> "WENO-OF/WENOEXT" ["e"=1]
"ChenguangZhang/sdfibm" -> "daidezhi/interPlicFoam" ["e"=1]
"ChenguangZhang/sdfibm" -> "DLR-RY/TwoPhaseFlow" ["e"=1]
"eric2003/OneFLOW" -> "SimFlowCFD/RapidCFD-dev" ["e"=1]
"eric2003/OneFLOW" -> "synthetik-technologies/blastfoam" ["e"=1]
"tkeskita/unstructured_grids" -> "tkeskita/io_mesh_vtk"
"tkeskita/unstructured_grids" -> "nogenmyr/swiftSnap"
"ElmerCSC/elmerfem" -> "OpenFOAM/OpenFOAM-dev" ["e"=1]
"thunil/Physics-Based-Deep-Learning" -> "thunil/Deep-Flow-Prediction" ["e"=1]
"DualSPHysics/DualSPHysics" -> "SimFlowCFD/RapidCFD-dev" ["e"=1]
"DualSPHysics/DualSPHysics" -> "UnnamedMoose/BasicOpenFOAMProgrammingTutorials" ["e"=1]
"DualSPHysics/DualSPHysics" -> "synthetik-technologies/blastfoam" ["e"=1]
"NVIDIA/AMGX" -> "SimFlowCFD/RapidCFD-dev" ["e"=1]
"ITHACA-FV/ITHACA-FV" -> "FlowModelingControl/flowtorch"
"ITHACA-FV/ITHACA-FV" -> "mathLab/EZyRB" ["e"=1]
"ITHACA-FV/ITHACA-FV" -> "WENO-OF/WENOEXT"
"ITHACA-FV/ITHACA-FV" -> "IllinoisRocstar/AccelerateCFD_CE"
"ITHACA-FV/ITHACA-FV" -> "ParticulateFlow/OSCCAR-doc"
"ITHACA-FV/ITHACA-FV" -> "phresher/OpenFOAM_Tutorials_Plus"
"ITHACA-FV/ITHACA-FV" -> "argonne-lcf/TensorFlowFoam"
"ITHACA-FV/ITHACA-FV" -> "ElsevierSoftwareX/SOFTX_2018_143"
"ITHACA-FV/ITHACA-FV" -> "psu-efd/PSU-OpenFOAM-Course-Notes"
"ITHACA-FV/ITHACA-FV" -> "argonne-lcf/PythonFOAM"
"je-santos/MPLBM-UT" -> "Franjcf/hybridPorousInterFoam" ["e"=1]
"je-santos/MPLBM-UT" -> "ImperialCollegeLondon/porefoam" ["e"=1]
"PMEAL/OpenPNM" -> "Franjcf/hybridPorousInterFoam" ["e"=1]
"daidezhi/interPlicFoam" -> "daidezhi/geometricVofExt"
"mdolab/dafoam" -> "argonne-lcf/PythonFOAM" ["e"=1]
"mdolab/dafoam" -> "argonne-lcf/TensorFlowFoam" ["e"=1]
"mdolab/dafoam" -> "unicfdlab/hybridCentralSolvers" ["e"=1]
"mdolab/dafoam" -> "damogranlabs/classy_blocks" ["e"=1]
"mdolab/dafoam" -> "fluiddyn/fluidfoam" ["e"=1]
"halbux/sparselizard" -> "synthetik-technologies/blastfoam" ["e"=1]
"cselab/korali" -> "cselab/Mirheo"
"surajp92/CFD_Julia" -> "UnnamedMoose/BasicOpenFOAMProgrammingTutorials" ["e"=1]
"fluiddyn/fluidfoam" -> "argonne-lcf/PythonFOAM"
"fluiddyn/fluidfoam" -> "phresher/OpenFOAM_Tutorials_Plus"
"fluiddyn/fluidfoam" -> "WENO-OF/WENOEXT"
"fluiddyn/fluidfoam" -> "damogranlabs/classy_blocks"
"fluiddyn/fluidfoam" -> "SedFoam/sedfoam" ["e"=1]
"fluiddyn/fluidfoam" -> "jnmlujnmlu/OpenFOAMTeaching"
"fluiddyn/fluidfoam" -> "Aalto-CFD/DLBFoam"
"fluiddyn/fluidfoam" -> "xu-xianghua/ofpp"
"fluiddyn/fluidfoam" -> "syavash20/TurbLab"
"fluiddyn/fluidfoam" -> "argonne-lcf/TensorFlowFoam"
"thunil/tempoGAN" -> "byungsook/deep-fluids"
"thunil/tempoGAN" -> "maxwerhahn/Multi-pass-GAN"
"byungsook/deep-fluids" -> "wiewel/LatentSpaceSubdivision"
"byungsook/deep-fluids" -> "wiewel/LatentSpacePhysics"
"byungsook/deep-fluids" -> "thunil/tempoGAN"
"byungsook/deep-fluids" -> "byungsook/neural-flow-style"
"byungsook/deep-fluids" -> "RachelCmy/mantaPatch"
"byungsook/deep-fluids" -> "thunil/Deep-Flow-Prediction"
"byungsook/deep-fluids" -> "vc-bonn/Unsupervised_Deep_Learning_of_Incompressible_Fluid_Dynamics"
"byungsook/deep-fluids" -> "RachelCmy/den2vel"
"byungsook/deep-fluids" -> "isl-org/DeepLagrangianFluids"
"loliverhennigh/Computational-Physics-and-Machine-Learning-Reading-List" -> "loliverhennigh/Phy-Net"
"loliverhennigh/Computational-Physics-and-Machine-Learning-Reading-List" -> "loliverhennigh/Computational-Fluid-Dynamics-Machine-Learning-Examples"
"loliverhennigh/Computational-Physics-and-Machine-Learning-Reading-List" -> "YunchaoYang/Machine_Learning_Fluid_Dynamics"
"loliverhennigh/Computational-Physics-and-Machine-Learning-Reading-List" -> "loliverhennigh/Steady-State-Flow-With-Neural-Nets"
"loliverhennigh/Computational-Physics-and-Machine-Learning-Reading-List" -> "cics-nd/rans-uncertainty"
"loliverhennigh/Computational-Physics-and-Machine-Learning-Reading-List" -> "AndreWeiner/machine-learning-applied-to-cfd"
"jerabaul29/Cylinder2DFlowControlDRL" -> "jerabaul29/Cylinder2DFlowControlDRLParallel"
"jerabaul29/Cylinder2DFlowControlDRL" -> "DonsetPG/fenics-DRL"
"jerabaul29/Cylinder2DFlowControlDRL" -> "thw1021/Cylinder2DFlowControlGeneral"
"jerabaul29/Cylinder2DFlowControlDRL" -> "venturi123/DRLinFluids"
"jerabaul29/Cylinder2DFlowControlDRL" -> "cfl-minds/drl_shape_optimization"
"jerabaul29/Cylinder2DFlowControlDRL" -> "LiuYangMage/RLFluidControl"
"jerabaul29/Cylinder2DFlowControlDRLParallel" -> "jerabaul29/Cylinder2DFlowControlDRL"
"jerabaul29/Cylinder2DFlowControlDRLParallel" -> "thw1021/Cylinder2DFlowControlGeneral"
"jerabaul29/Cylinder2DFlowControlDRLParallel" -> "LiuYangMage/RLFluidControl"
"jerabaul29/Cylinder2DFlowControlDRLParallel" -> "DonsetPG/fenics-DRL"
"jerabaul29/Cylinder2DFlowControlDRLParallel" -> "vbelus/falling-liquid-film-drl"
"Omegastick/pytorch-cpp-rl" -> "cselab/smarties" ["e"=1]
"byungsook/neural-flow-style" -> "byungsook/deep-fluids"
"cselab/smarties" -> "cselab/MARL_LES"
"cselab/smarties" -> "hjbae/SciMARL_WMLES"
"cselab/smarties" -> "cselab/korali"
"cselab/smarties" -> "cselab/CubismUP_3D"
"cselab/smarties" -> "jerabaul29/Cylinder2DFlowControlDRL"
"cselab/smarties" -> "cselab/Mirheo"
"cselab/smarties" -> "DonsetPG/fenics-DRL"
"fedackb/mesh-fairing" -> "tkeskita/mesh_heal" ["e"=1]
"YunchaoYang/Machine_Learning_Fluid_Dynamics" -> "loliverhennigh/Computational-Fluid-Dynamics-Machine-Learning-Examples"
"YunchaoYang/Machine_Learning_Fluid_Dynamics" -> "ikespand/awesome-machine-learning-fluid-mechanics"
"YunchaoYang/Machine_Learning_Fluid_Dynamics" -> "AndreWeiner/machine-learning-applied-to-cfd"
"AndreWeiner/machine-learning-applied-to-cfd" -> "loliverhennigh/Computational-Fluid-Dynamics-Machine-Learning-Examples"
"AndreWeiner/machine-learning-applied-to-cfd" -> "AndreWeiner/ml-cfd-lecture"
"AndreWeiner/machine-learning-applied-to-cfd" -> "argonne-lcf/TensorFlowFoam"
"AndreWeiner/machine-learning-applied-to-cfd" -> "YunchaoYang/Machine_Learning_Fluid_Dynamics"
"AndreWeiner/machine-learning-applied-to-cfd" -> "ikespand/awesome-machine-learning-fluid-mechanics"
"AndreWeiner/machine-learning-applied-to-cfd" -> "mdribeiro/DeepCFD"
"AndreWeiner/machine-learning-applied-to-cfd" -> "argonne-lcf/PythonFOAM"
"AndreWeiner/machine-learning-applied-to-cfd" -> "SimFlowCFD/RapidCFD-dev"
"AndreWeiner/machine-learning-applied-to-cfd" -> "FlowModelingControl/flowtorch"
"AndreWeiner/machine-learning-applied-to-cfd" -> "cics-nd/rans-uncertainty"
"AndreWeiner/machine-learning-applied-to-cfd" -> "xiaoh/turbulence-modeling-PIML"
"AndreWeiner/machine-learning-applied-to-cfd" -> "ITHACA-FV/ITHACA-FV"
"AndreWeiner/machine-learning-applied-to-cfd" -> "UnnamedMoose/BasicOpenFOAMProgrammingTutorials"
"AndreWeiner/machine-learning-applied-to-cfd" -> "lesgo-jhu/lesgo" ["e"=1]
"AndreWeiner/machine-learning-applied-to-cfd" -> "google/jax-cfd" ["e"=1]
"jolibrain/fluidnet_cxx" -> "kristofe/manta"
"wiewel/LatentSpacePhysics" -> "wiewel/LatentSpaceSubdivision"
"cics-nd/rans-uncertainty" -> "xiaoh/turbulence-modeling-PIML"
"cics-nd/rans-uncertainty" -> "mthsmcd/MachineLearningTurbulenceModels"
"code-saturne/code_saturne" -> "OpenQBMM/OpenQBMM" ["e"=1]
"HiFiLES/HiFiLES-solver" -> "WENO-OF/WENOEXT" ["e"=1]
"thunil/Deep-Flow-Prediction" -> "loliverhennigh/Computational-Fluid-Dynamics-Machine-Learning-Examples"
"thunil/Deep-Flow-Prediction" -> "locuslab/cfd-gcn"
"thunil/Deep-Flow-Prediction" -> "thunil/Physics-Based-Deep-Learning" ["e"=1]
"thunil/Deep-Flow-Prediction" -> "loliverhennigh/Steady-State-Flow-With-Neural-Nets"
"thunil/Deep-Flow-Prediction" -> "byungsook/deep-fluids"
"thunil/Deep-Flow-Prediction" -> "AndreWeiner/machine-learning-applied-to-cfd"
"thunil/Deep-Flow-Prediction" -> "jerabaul29/Cylinder2DFlowControlDRL"
"thunil/Deep-Flow-Prediction" -> "maziarraissi/HFM" ["e"=1]
"thunil/Deep-Flow-Prediction" -> "Extrality/AirfRANS"
"thunil/Deep-Flow-Prediction" -> "YunchaoYang/Machine_Learning_Fluid_Dynamics"
"thunil/Deep-Flow-Prediction" -> "Raocp/PINN-laminar-flow" ["e"=1]
"thunil/Deep-Flow-Prediction" -> "google/jax-cfd" ["e"=1]
"thunil/Deep-Flow-Prediction" -> "tum-pbs/Diffusion-based-Flow-Prediction"
"thunil/Deep-Flow-Prediction" -> "argonne-lcf/TensorFlowFoam"
"thunil/Deep-Flow-Prediction" -> "vc-bonn/Unsupervised_Deep_Learning_of_Incompressible_Fluid_Dynamics"
"precice/openfoam-adapter" -> "fppimenta/rheoTool" ["e"=1]
"jiweiqi/CollectionOfMechanisms" -> "Aalto-CFD/CEMAFoam" ["e"=1]
"tkeskita/BVtkNodes" -> "tkeskita/io_mesh_vtk"
"tkeskita/BVtkNodes" -> "tkeskita/swiftBlock"
"tkeskita/BVtkNodes" -> "cwant/VTKBlender"
"tkeskita/BVtkNodes" -> "simboden/BVtkNodes"
"tkeskita/BVtkNodes" -> "tkeskita/unstructured_grids"
"cfl-minds/drl_shape_optimization" -> "jviquerat/pbo"
"cfl-minds/drl_shape_optimization" -> "DonsetPG/fenics-DRL"
"cfl-minds/drl_shape_optimization" -> "atharvaaalok/Airfoil-Shape-Optimization-RL"
"HopeFOAM/HopeFOAM" -> "WENO-OF/WENOEXT"
"tkeskita/snappyhexmesh_gui" -> "tkeskita/swiftBlock"
"tkeskita/snappyhexmesh_gui" -> "tkeskita/unstructured_grids"
"tkeskita/snappyhexmesh_gui" -> "ENGYS/HELYX-OS"
"tkeskita/snappyhexmesh_gui" -> "nogenmyr/swiftSnap"
"tkeskita/snappyhexmesh_gui" -> "jaheyns/CfdOF"
"simboden/BVtkNodes" -> "ECMWFCode4Earth/sci_vis"
"xu-xianghua/ofpp" -> "argonne-lcf/PythonFOAM"
"xu-xianghua/ofpp" -> "fluiddyn/fluidfoam"
"xiaoh/turbulence-modeling-PIML" -> "cics-nd/rans-uncertainty"
"xiaoh/turbulence-modeling-PIML" -> "argonne-lcf/TensorFlowFoam"
"smenon/dynamicTopoFvMesh" -> "chanko08/mesh_refine"
"smenon/dynamicTopoFvMesh" -> "tgvoskuilen/meshBalancing"
"syavash20/TurbLab" -> "timofeymukha/libWallModelledLES"
"tkeskita/swiftBlock" -> "nogenmyr/swiftSnap"
"tkeskita/swiftBlock" -> "tkeskita/snappyhexmesh_gui"
"SLACKHA/pyJac" -> "kahilah/ct2foam" ["e"=1]
"OpenFOAM/OpenFOAM-dev" -> "UnnamedMoose/BasicOpenFOAMProgrammingTutorials"
"OpenFOAM/OpenFOAM-dev" -> "openfoamtutorials/OpenFOAM_Tutorials_"
"OpenFOAM/OpenFOAM-dev" -> "su2code/SU2" ["e"=1]
"OpenFOAM/OpenFOAM-dev" -> "precice/precice" ["e"=1]
"OpenFOAM/OpenFOAM-dev" -> "jnmlujnmlu/OpenFOAMTeaching"
"OpenFOAM/OpenFOAM-dev" -> "Kitware/ParaView" ["e"=1]
"OpenFOAM/OpenFOAM-dev" -> "dealii/dealii" ["e"=1]
"OpenFOAM/OpenFOAM-dev" -> "SimFlowCFD/RapidCFD-dev"
"OpenFOAM/OpenFOAM-dev" -> "PyFR/PyFR" ["e"=1]
"OpenFOAM/OpenFOAM-dev" -> "ucns3d-team/UCNS3D" ["e"=1]
"OpenFOAM/OpenFOAM-dev" -> "mfem/mfem" ["e"=1]
"OpenFOAM/OpenFOAM-dev" -> "jaheyns/CfdOF"
"OpenFOAM/OpenFOAM-dev" -> "ElmerCSC/elmerfem" ["e"=1]
"OpenFOAM/OpenFOAM-dev" -> "barbagroup/CFDPython"
"OpenFOAM/OpenFOAM-dev" -> "Nek5000/Nek5000" ["e"=1]
"sailfish-team/sailfish" -> "loliverhennigh/Lattice-Boltzmann-fluid-flow-in-Tensorflow" ["e"=1]
"FluidityProject/fluidity" -> "SimFlowCFD/RapidCFD-dev" ["e"=1]
"numerical-mooc/numerical-mooc" -> "barbagroup/AeroPython" ["e"=1]
"numerical-mooc/numerical-mooc" -> "barbagroup/CFDPython"
"numerical-mooc/numerical-mooc" -> "IanHawke/NumericalMethods"
"numerical-mooc/numerical-mooc" -> "mandli/intro-numerical-methods"
"numerical-mooc/numerical-mooc" -> "spectralDNS/spectralDNS" ["e"=1]
"numerical-mooc/numerical-mooc" -> "mandli/numerical-methods-pdes"
"numerical-mooc/numerical-mooc" -> "firedrakeproject/firedrake" ["e"=1]
"numerical-mooc/numerical-mooc" -> "PyFR/PyFR" ["e"=1]
"numerical-mooc/numerical-mooc" -> "UnnamedMoose/BasicOpenFOAMProgrammingTutorials"
"numerical-mooc/numerical-mooc" -> "openfoamtutorials/OpenFOAM_Tutorials_"
"numerical-mooc/numerical-mooc" -> "hplgit/num-methods-for-PDEs" ["e"=1]
"numerical-mooc/numerical-mooc" -> "python-hydro/pyro2" ["e"=1]
"numerical-mooc/numerical-mooc" -> "jrjohansson/scientific-python-lectures" ["e"=1]
"numerical-mooc/numerical-mooc" -> "SimFlowCFD/RapidCFD-dev"
"numerical-mooc/numerical-mooc" -> "barbagroup/numba_tutorial_scipy2016" ["e"=1]
"quercushernandez/StructurePreservingNN" -> "quercushernandez/DeepLearningMOR"
"markummitchell/engauge-digitizer" -> "barbagroup/CFDPython" ["e"=1]
"thu-zhanghl/CFD101" -> "UnnamedMoose/BasicOpenFOAMProgrammingTutorials"
"thu-zhanghl/CFD101" -> "surajp92/CFD_Julia" ["e"=1]
"thu-zhanghl/CFD101" -> "brli3/CFD" ["e"=1]
"thu-zhanghl/CFD101" -> "jaheyns/CfdOF"
"thu-zhanghl/CFD101" -> "barbagroup/CFDPython"
"thu-zhanghl/CFD101" -> "mhamadmahdialloush/uFVM" ["e"=1]
"thu-zhanghl/CFD101" -> "jxzisacfder/Coll4CFD"
"thu-zhanghl/CFD101" -> "IBAMR/IBAMR" ["e"=1]
"thu-zhanghl/CFD101" -> "Raocp/PINN-laminar-flow" ["e"=1]
"thu-zhanghl/CFD101" -> "Xiangyu-Hu/SPHinXsys" ["e"=1]
"thu-zhanghl/CFD101" -> "bueler/p4pdes" ["e"=1]
"thu-zhanghl/CFD101" -> "AndreWeiner/ml-cfd-lecture"
"thu-zhanghl/CFD101" -> "AndreWeiner/machine-learning-applied-to-cfd"
"thu-zhanghl/CFD101" -> "luo-yining/CFDBench" ["e"=1]
"thu-zhanghl/CFD101" -> "jnmlujnmlu/OpenFOAMTeaching"
"duncanam/rhoReactingCentralFoam" -> "ZSHtju/reactingDNS_OpenFOAM"
"neuraloperator/graph-pde" -> "kaist-silab/awesome-graph-pde" ["e"=1]
"phorgue/porousMultiphaseFoam" -> "Franjcf/hybridPorousInterFoam"
"phorgue/porousMultiphaseFoam" -> "Franjcf/hybridBiotInterFoam"
"phorgue/porousMultiphaseFoam" -> "csoulain/porousMedia4Foam"
"phorgue/porousMultiphaseFoam" -> "phresher/OpenFOAM_Tutorials_Plus"
"phorgue/porousMultiphaseFoam" -> "isoAdvector/isoAdvector"
"phorgue/porousMultiphaseFoam" -> "fppimenta/rheoTool"
"phorgue/porousMultiphaseFoam" -> "ImperialCollegeLondon/porefoam"
"Franjcf/hybridPorousInterFoam" -> "phorgue/porousMultiphaseFoam"
"Franjcf/hybridPorousInterFoam" -> "Franjcf/hybridBiotInterFoam"
"Franjcf/hybridPorousInterFoam" -> "ImperialCollegeLondon/porefoam"
"Franjcf/hybridPorousInterFoam" -> "csoulain/porousMedia4Foam"
"Franjcf/hybridBiotInterFoam" -> "Franjcf/hybridPorousInterFoam"
"Franjcf/hybridBiotInterFoam" -> "ImperialCollegeLondon/porefoam"
"cselab/aphros" -> "DLR-RY/TwoPhaseFlow" ["e"=1]
"cselab/aphros" -> "cselab/Mirheo" ["e"=1]
"cselab/aphros" -> "DLR-RY/VoFLibrary" ["e"=1]
"cselab/aphros" -> "exasim-project/NeoN" ["e"=1]
"argonne-lcf/TensorFlowFoam" -> "argonne-lcf/PythonFOAM"
"argonne-lcf/TensorFlowFoam" -> "AndreWeiner/machine-learning-applied-to-cfd"
"argonne-lcf/TensorFlowFoam" -> "Aalto-CFD/DLBFoam"
"argonne-lcf/TensorFlowFoam" -> "xiaoh/turbulence-modeling-PIML"
"argonne-lcf/TensorFlowFoam" -> "syavash20/TurbLab"
"argonne-lcf/TensorFlowFoam" -> "Rvadrabade/Debugging-OpenFOAM-with-Visual-Studio-Code"
"argonne-lcf/TensorFlowFoam" -> "jnmlujnmlu/OpenFOAMTeaching"
"argonne-lcf/TensorFlowFoam" -> "WENO-OF/WENOEXT"
"argonne-lcf/TensorFlowFoam" -> "timofeymukha/turbulucid"
"argonne-lcf/TensorFlowFoam" -> "fluiddyn/fluidfoam"
"argonne-lcf/TensorFlowFoam" -> "cics-nd/rans-uncertainty"
"IanHawke/NumericalMethods" -> "mandli/numerical-methods-pdes"
"synthetik-technologies/blastfoam" -> "WENO-OF/WENOEXT"
"synthetik-technologies/blastfoam" -> "hystrath/hyStrath" ["e"=1]
"synthetik-technologies/blastfoam" -> "ElsevierSoftwareX/SOFTX_2018_143"
"synthetik-technologies/blastfoam" -> "unicfdlab/hybridCentralSolvers"
"synthetik-technologies/blastfoam" -> "Aalto-CFD/DLBFoam"
"synthetik-technologies/blastfoam" -> "JieSun-pku/detonationFoam"
"synthetik-technologies/blastfoam" -> "duncanam/rhoReactingCentralFoam"
"synthetik-technologies/blastfoam" -> "DLR-RY/TwoPhaseFlow"
"synthetik-technologies/blastfoam" -> "HenningScheufler/multiDimAMR"
"synthetik-technologies/blastfoam" -> "OpenQBMM/OpenQBMM"
"synthetik-technologies/blastfoam" -> "UnnamedMoose/BasicOpenFOAMProgrammingTutorials"
"synthetik-technologies/blastfoam" -> "STFS-TUDa/blastAMR"
"synthetik-technologies/blastfoam" -> "SimFlowCFD/RapidCFD-dev"
"synthetik-technologies/blastfoam" -> "AMReX-Combustion/PeleC" ["e"=1]
"synthetik-technologies/blastfoam" -> "philipmorrisintl/aerosolved"
"ElsevierSoftwareX/SOFTX_2018_143" -> "HenningScheufler/multiDimAMR"
"ElsevierSoftwareX/SOFTX_2018_143" -> "Aalto-CFD/DLBFoam"
"damogranlabs/classy_blocks" -> "WENO-OF/WENOEXT"
"damogranlabs/classy_blocks" -> "fluiddyn/fluidfoam"
"damogranlabs/classy_blocks" -> "STFS-TUDa/blastAMR"
"damogranlabs/classy_blocks" -> "exasim-project/NeoN"
"Rvadrabade/Debugging-OpenFOAM-with-Visual-Studio-Code" -> "Aalto-CFD/DLBFoam"
"HenningScheufler/multiDimAMR" -> "ElsevierSoftwareX/SOFTX_2018_143"
"HenningScheufler/multiDimAMR" -> "tgvoskuilen/meshBalancing"
"OpenFOAM/OpenFOAM-8" -> "ElsevierSoftwareX/SOFTX_2018_143" ["e"=1]
"csoulain/porousMedia4Foam" -> "csoulain/hybridPorousFoam"
"csoulain/porousMedia4Foam" -> "Franjcf/hybridPorousInterFoam"
"mdribeiro/DeepCFD" -> "AndreWeiner/machine-learning-applied-to-cfd"
"mdribeiro/DeepCFD" -> "loliverhennigh/Computational-Fluid-Dynamics-Machine-Learning-Examples"
"mdribeiro/DeepCFD" -> "loliverhennigh/Steady-State-Flow-With-Neural-Nets"
"mdribeiro/DeepCFD" -> "Shengfeng233/PINN-for-NS-equation" ["e"=1]
"mdribeiro/DeepCFD" -> "argonne-lcf/PythonFOAM"
"mdribeiro/DeepCFD" -> "zbyandmoon/DeepCFD_with_PaddlePaddle"
"mdribeiro/DeepCFD" -> "luo-yining/CFDBench" ["e"=1]
"mdribeiro/DeepCFD" -> "Raocp/PINN-laminar-flow" ["e"=1]
"mdribeiro/DeepCFD" -> "BaratiLab/Diffusion-based-Fluid-Super-resolution" ["e"=1]
"mdribeiro/DeepCFD" -> "argonne-lcf/TensorFlowFoam"
"mdribeiro/DeepCFD" -> "ikespand/awesome-machine-learning-fluid-mechanics"
"mdribeiro/DeepCFD" -> "jaheyns/CfdOF"
"mdribeiro/DeepCFD" -> "WillDreamer/Awesome-AI4CFD" ["e"=1]
"hpsim/OGL" -> "exasim-project/FoamAdapter"
"thw1021/Cylinder2DFlowControlGeneral" -> "jerabaul29/Cylinder2DFlowControlDRLParallel"
"tum-pbs/Solver-in-the-Loop" -> "locuslab/cfd-gcn" ["e"=1]
"sungyongs/dpgn" -> "yakovlev31/graphpdes_experiments"
"sungyongs/dpgn" -> "yakovlev31/graphpdes"
"sungyongs/dpgn" -> "quercushernandez/ThermodynamicsGNN"
"sungyongs/dpgn" -> "USC-Melady/ICLR2020-PADGN"
"DonsetPG/fenics-DRL" -> "jerabaul29/Cylinder2DFlowControlDRLParallel"
"DonsetPG/fenics-DRL" -> "venturi123/DRLinFluids-examples"
"DonsetPG/fenics-DRL" -> "jerabaul29/Cylinder2DFlowControlDRL"
"hplgit/num-methods-for-PDEs" -> "mandli/numerical-methods-pdes" ["e"=1]
"locuslab/cfd-gcn" -> "cfl-minds/gnn_laminar_flow"
"locuslab/cfd-gcn" -> "snap-stanford/lamp"
"locuslab/cfd-gcn" -> "thunil/Deep-Flow-Prediction"
"FlowModelingControl/flowtorch" -> "OFDataCommittee/mlfoam"
"FlowModelingControl/flowtorch" -> "ITHACA-FV/ITHACA-FV"
"FlowModelingControl/flowtorch" -> "darshan315/flow_past_cylinder_by_DRL"
"FlowModelingControl/flowtorch" -> "AndreWeiner/phd_openfoam"
"FlowModelingControl/flowtorch" -> "WENO-OF/WENOEXT"
"FlowModelingControl/flowtorch" -> "syavash20/TurbLab"
"FlowModelingControl/flowtorch" -> "NHERI-SimCenter/TurbulenceInflowTool"
"imfd-stroemungsmechanik/atomizationFoam" -> "TonkomoLLC/multiRegionReactingFoam"
"isl-org/DeepLagrangianFluids" -> "syguan96/NeuroFluid"
"isl-org/DeepLagrangianFluids" -> "tum-pbs/DMCF"
"isl-org/DeepLagrangianFluids" -> "BaratiLab/FGN"
"isl-org/DeepLagrangianFluids" -> "geoelements/gns"
"isl-org/DeepLagrangianFluids" -> "byungsook/deep-fluids"
"isl-org/DeepLagrangianFluids" -> "kks32/learning_to_simulate"
"isl-org/DeepLagrangianFluids" -> "tumaer/lagrangebench"
"isl-org/DeepLagrangianFluids" -> "YunzhuLi/DPI-Net" ["e"=1]
"isl-org/DeepLagrangianFluids" -> "wu375/simple-physics-simulator-pytorch-geometry"
"isl-org/DeepLagrangianFluids" -> "locuslab/cfd-gcn"
"isl-org/DeepLagrangianFluids" -> "cschenck/SmoothParticleNets"
"LiuYangMage/RLFluidControl" -> "vbelus/falling-liquid-film-drl"
"wiewel/LatentSpaceSubdivision" -> "tum-pbs/Global-Flow-Transport"
"precice/precice" -> "UnnamedMoose/BasicOpenFOAMProgrammingTutorials" ["e"=1]
"precice/precice" -> "jaheyns/CfdOF" ["e"=1]
"Cantera/cantera" -> "synthetik-technologies/blastfoam" ["e"=1]
"Cantera/cantera" -> "OpenFOAM/OpenFOAM-dev" ["e"=1]
"firemodels/fds" -> "synthetik-technologies/blastfoam" ["e"=1]
"ikespand/awesome-machine-learning-fluid-mechanics" -> "YunchaoYang/Machine_Learning_Fluid_Dynamics"
"ikespand/awesome-machine-learning-fluid-mechanics" -> "AndreWeiner/ml-cfd-lecture"
"ikespand/awesome-machine-learning-fluid-mechanics" -> "AndreWeiner/machine-learning-applied-to-cfd"
"ikespand/awesome-machine-learning-fluid-mechanics" -> "loliverhennigh/Computational-Fluid-Dynamics-Machine-Learning-Examples"
"ikespand/awesome-machine-learning-fluid-mechanics" -> "WillDreamer/Awesome-AI4CFD" ["e"=1]
"ikespand/awesome-machine-learning-fluid-mechanics" -> "lento234/awesome-fluid-dynamics" ["e"=1]
"SimFlowCFD/RapidCFD-dev" -> "UnnamedMoose/BasicOpenFOAMProgrammingTutorials"
"SimFlowCFD/RapidCFD-dev" -> "jnmlujnmlu/OpenFOAMTeaching"
"SimFlowCFD/RapidCFD-dev" -> "WENO-OF/WENOEXT"
"SimFlowCFD/RapidCFD-dev" -> "synthetik-technologies/blastfoam"
"SimFlowCFD/RapidCFD-dev" -> "argonne-lcf/TensorFlowFoam"
"SimFlowCFD/RapidCFD-dev" -> "HopeFOAM/HopeFOAM"
"SimFlowCFD/RapidCFD-dev" -> "phresher/OpenFOAM_Tutorials_Plus"
"SimFlowCFD/RapidCFD-dev" -> "fppimenta/rheoTool"
"SimFlowCFD/RapidCFD-dev" -> "AndreWeiner/machine-learning-applied-to-cfd"
"SimFlowCFD/RapidCFD-dev" -> "hystrath/hyStrath" ["e"=1]
"SimFlowCFD/RapidCFD-dev" -> "psu-efd/PSU-OpenFOAM-Course-Notes"
"SimFlowCFD/RapidCFD-dev" -> "ElsevierSoftwareX/SOFTX_2018_143"
"SimFlowCFD/RapidCFD-dev" -> "Nek5000/nekRS" ["e"=1]
"SimFlowCFD/RapidCFD-dev" -> "argonne-lcf/PythonFOAM"
"SimFlowCFD/RapidCFD-dev" -> "unicfdlab/hybridCentralSolvers"
"lanl/MF-LBM" -> "Franjcf/hybridPorousInterFoam" ["e"=1]
"Ceyron/machine-learning-and-simulation" -> "AndreWeiner/ml-cfd-lecture" ["e"=1]
"AndreWeiner/ml-cfd-lecture" -> "AndreWeiner/machine-learning-applied-to-cfd"
"AndreWeiner/ml-cfd-lecture" -> "ikespand/awesome-machine-learning-fluid-mechanics"
"AndreWeiner/ml-cfd-lecture" -> "loliverhennigh/Computational-Fluid-Dynamics-Machine-Learning-Examples"
"AndreWeiner/ml-cfd-lecture" -> "argonne-lcf/TensorFlowFoam"
"AndreWeiner/ml-cfd-lecture" -> "FlowModelingControl/flowtorch"
"AndreWeiner/ml-cfd-lecture" -> "OFDataCommittee/drlfoam"
"AndreWeiner/ml-cfd-lecture" -> "lento234/awesome-fluid-dynamics" ["e"=1]
"AndreWeiner/ml-cfd-lecture" -> "UnnamedMoose/BasicOpenFOAMProgrammingTutorials"
"AndreWeiner/ml-cfd-lecture" -> "AndreWeiner/turbulence_modelling_lecture"
"AndreWeiner/ml-cfd-lecture" -> "argonne-lcf/PythonFOAM"
"AndreWeiner/ml-cfd-lecture" -> "google/jax-cfd" ["e"=1]
"AndreWeiner/ml-cfd-lecture" -> "YunchaoYang/Machine_Learning_Fluid_Dynamics"
"AndreWeiner/ml-cfd-lecture" -> "OFDataCommittee/OFMLHackathon"
"AndreWeiner/ml-cfd-lecture" -> "jnmlujnmlu/OpenFOAMTeaching"
"AndreWeiner/ml-cfd-lecture" -> "SimFlowCFD/RapidCFD-dev"
"lento234/awesome-fluid-dynamics" -> "AndreWeiner/ml-cfd-lecture" ["e"=1]
"lento234/awesome-fluid-dynamics" -> "ikespand/awesome-machine-learning-fluid-mechanics" ["e"=1]
"lento234/awesome-fluid-dynamics" -> "UnnamedMoose/BasicOpenFOAMProgrammingTutorials" ["e"=1]
"google/jax-cfd" -> "AndreWeiner/machine-learning-applied-to-cfd" ["e"=1]
"google/jax-cfd" -> "AndreWeiner/ml-cfd-lecture" ["e"=1]
"rlguy/GridFluidSim3D" -> "google/FluidNet" ["e"=1]
"MahdiNabil/CFD-PC" -> "wyldckat/evapVOFHardt"
"MahdiNabil/CFD-PC" -> "DLR-RY/TwoPhaseFlow"
"DLR-RY/TwoPhaseFlow" -> "ElsevierSoftwareX/SOFTX_2018_143"
"DLR-RY/TwoPhaseFlow" -> "DLR-RY/VoFLibrary"
"DLR-RY/TwoPhaseFlow" -> "STFS-TUDa/blastAMR"
"DLR-RY/TwoPhaseFlow" -> "isoAdvector/isoAdvector"
"DLR-RY/TwoPhaseFlow" -> "WENO-OF/WENOEXT"
"DLR-RY/TwoPhaseFlow" -> "DLR-RY/caseFoam"
"DLR-RY/TwoPhaseFlow" -> "exasim-project/NeoN"
"ZSHtju/reactingDNS_OpenFOAM" -> "ZhangYanTJU/reactingCanteraFoam"
"ZSHtju/reactingDNS_OpenFOAM" -> "Aalto-CFD/DLBFoam"
"ZSHtju/reactingDNS_OpenFOAM" -> "TonkomoLLC/multiRegionReactingFoam"
"argonne-lcf/PythonFOAM" -> "argonne-lcf/TensorFlowFoam"
"argonne-lcf/PythonFOAM" -> "blttkgl/DLBFoam-1.0"
"argonne-lcf/PythonFOAM" -> "fluiddyn/fluidfoam"
"argonne-lcf/PythonFOAM" -> "Aalto-CFD/DLBFoam"
"argonne-lcf/PythonFOAM" -> "xu-xianghua/ofpp"
"argonne-lcf/PythonFOAM" -> "WENO-OF/WENOEXT"
"argonne-lcf/PythonFOAM" -> "psu-efd/PSU-OpenFOAM-Course-Notes"
"argonne-lcf/PythonFOAM" -> "Rvadrabade/Debugging-OpenFOAM-with-Visual-Studio-Code"
"argonne-lcf/PythonFOAM" -> "TonkomoLLC/multiRegionReactingFoam"
"argonne-lcf/PythonFOAM" -> "ElsevierSoftwareX/SOFTX_2018_143"
"ZhangYanTJU/reactingCanteraFoam" -> "ZSHtju/reactingDNS_OpenFOAM"
"Aalto-CFD/DLBFoam" -> "ZSHtju/reactingDNS_OpenFOAM"
"Aalto-CFD/DLBFoam" -> "Aalto-CFD/CEMAFoam"
"Aalto-CFD/DLBFoam" -> "kahilah/ct2foam"
"Aalto-CFD/DLBFoam" -> "blttkgl/DLBFoam-1.0"
"Aalto-CFD/DLBFoam" -> "UMN-CRFEL/OpenFOAM-Cantera"
"Aalto-CFD/DLBFoam" -> "ElsevierSoftwareX/SOFTX_2018_143"
"Aalto-CFD/DLBFoam" -> "WENO-OF/WENOEXT"
"Aalto-CFD/DLBFoam" -> "TonkomoLLC/multiRegionReactingFoam"
"ladybug-tools/butterfly" -> "argonne-lcf/TensorFlowFoam" ["e"=1]
"openfoamtutorials/OpenFOAM_Tutorials_" -> "jnmlujnmlu/OpenFOAMTeaching"
"openfoamtutorials/OpenFOAM_Tutorials_" -> "phresher/OpenFOAM_Tutorials_Plus"
"openfoamtutorials/OpenFOAM_Tutorials_" -> "psu-efd/PSU-OpenFOAM-Course-Notes"
"openfoamtutorials/OpenFOAM_Tutorials_" -> "UnnamedMoose/BasicOpenFOAMProgrammingTutorials"
"openfoamtutorials/OpenFOAM_Tutorials_" -> "openfoamtutorials/openfoam_tutorials"
"openfoamtutorials/OpenFOAM_Tutorials_" -> "OpenFOAM/OpenFOAM-dev"
"openfoamtutorials/OpenFOAM_Tutorials_" -> "ParticulateFlow/OSCCAR-doc"
"openfoamtutorials/OpenFOAM_Tutorials_" -> "SimFlowCFD/RapidCFD-dev"
"openfoamtutorials/OpenFOAM_Tutorials_" -> "jaheyns/CfdOF"
"openfoamtutorials/OpenFOAM_Tutorials_" -> "unicfdlab/TrainingTracks"
"openfoamtutorials/OpenFOAM_Tutorials_" -> "precice/openfoam-adapter" ["e"=1]
"openfoamtutorials/OpenFOAM_Tutorials_" -> "synthetik-technologies/blastfoam"
"openfoamtutorials/OpenFOAM_Tutorials_" -> "ChenguangZhang/sdfibm" ["e"=1]
"openfoamtutorials/OpenFOAM_Tutorials_" -> "fppimenta/rheoTool"
"openfoamtutorials/OpenFOAM_Tutorials_" -> "ElsevierSoftwareX/SOFTX_2018_143"
"vc-bonn/Unsupervised_Deep_Learning_of_Incompressible_Fluid_Dynamics" -> "vc-bonn/Teaching_Incompressible_Fluid_Dynamics_to_3D_CNNs"
"vc-bonn/Unsupervised_Deep_Learning_of_Incompressible_Fluid_Dynamics" -> "vc-bonn/Spline_PINN"
"jviquerat/pbo" -> "cfl-minds/drl_shape_optimization"
"kaist-silab/awesome-graph-pde" -> "kaist-silab/graphsplinenets"
"kaist-silab/awesome-graph-pde" -> "yakovlev31/graphpdes_experiments"
"kaist-silab/awesome-graph-pde" -> "martenlienen/finite-element-networks"
"ParticulateFlow/OSCCAR-doc" -> "psu-efd/PSU-OpenFOAM-Course-Notes"
"ParticulateFlow/OSCCAR-doc" -> "WENO-OF/WENOEXT"
"ParticulateFlow/OSCCAR-doc" -> "isoAdvector/isoAdvector"
"ParticulateFlow/OSCCAR-doc" -> "Rvadrabade/Debugging-OpenFOAM-with-Visual-Studio-Code"
"ParticulateFlow/OSCCAR-doc" -> "UnnamedMoose/BasicOpenFOAMProgrammingTutorials"
"ParticulateFlow/OSCCAR-doc" -> "OpenQBMM/OpenQBMM"
"ParticulateFlow/OSCCAR-doc" -> "xiaoh/sediFoam" ["e"=1]
"ParticulateFlow/OSCCAR-doc" -> "openfoamtutorials/OpenFOAM_Tutorials_"
"wwMark/meshgraphnets" -> "echowve/meshGraphNets_pytorch"
"wwMark/meshgraphnets" -> "CCSI-Toolset/MGN"
"wu375/simple-physics-simulator-pytorch-geometry" -> "geoelements/gns"
"psu-efd/PSU-OpenFOAM-Course-Notes" -> "phresher/OpenFOAM_Tutorials_Plus"
"psu-efd/PSU-OpenFOAM-Course-Notes" -> "Rvadrabade/Debugging-OpenFOAM-with-Visual-Studio-Code"
"psu-efd/PSU-OpenFOAM-Course-Notes" -> "ParticulateFlow/OSCCAR-doc"
"psu-efd/PSU-OpenFOAM-Course-Notes" -> "openfoamtutorials/OpenFOAM_Tutorials_"
"psu-efd/PSU-OpenFOAM-Course-Notes" -> "jnmlujnmlu/OpenFOAMTeaching"
"psu-efd/PSU-OpenFOAM-Course-Notes" -> "UnnamedMoose/BasicOpenFOAMProgrammingTutorials"
"psu-efd/PSU-OpenFOAM-Course-Notes" -> "openfoamtutorials/openfoam_tutorials"
"psu-efd/PSU-OpenFOAM-Course-Notes" -> "argonne-lcf/PythonFOAM"
"psu-efd/PSU-OpenFOAM-Course-Notes" -> "ElsevierSoftwareX/SOFTX_2018_143"
"vc-bonn/Teaching_Incompressible_Fluid_Dynamics_to_3D_CNNs" -> "vc-bonn/Unsupervised_Deep_Learning_of_Incompressible_Fluid_Dynamics"
"vc-bonn/Teaching_Incompressible_Fluid_Dynamics_to_3D_CNNs" -> "vc-bonn/Spline_PINN"
"yakovlev31/graphpdes" -> "yakovlev31/graphpdes_experiments"
"yakovlev31/graphpdes_experiments" -> "yakovlev31/graphpdes"
"cselab/MARL_LES" -> "cselab/CubismUP_3D"
"ange-yaghi/engine-sim" -> "ProjectPhysX/FluidX3D" ["e"=1]
"OpenQBMM/OpenQBMM" -> "WENO-OF/WENOEXT"
"phresher/OpenFOAM_Tutorials_Plus" -> "psu-efd/PSU-OpenFOAM-Course-Notes"
"phresher/OpenFOAM_Tutorials_Plus" -> "jnmlujnmlu/OpenFOAMTeaching"
"phresher/OpenFOAM_Tutorials_Plus" -> "openfoamtutorials/openfoam_tutorials"
"phresher/OpenFOAM_Tutorials_Plus" -> "openfoamtutorials/OpenFOAM_Tutorials_"
"phresher/OpenFOAM_Tutorials_Plus" -> "UnnamedMoose/BasicOpenFOAMProgrammingTutorials"
"phresher/OpenFOAM_Tutorials_Plus" -> "fluiddyn/fluidfoam"
"phresher/OpenFOAM_Tutorials_Plus" -> "Rvadrabade/Debugging-OpenFOAM-with-Visual-Studio-Code"
"phresher/OpenFOAM_Tutorials_Plus" -> "SedFoam/sedfoam" ["e"=1]
"phresher/OpenFOAM_Tutorials_Plus" -> "phorgue/porousMultiphaseFoam"
"unicfdlab/libAcoustics" -> "WENO-OF/WENOEXT" ["e"=1]
"ProjectPhysX/OpenCL-Wrapper" -> "ProjectPhysX/FluidX3D" ["e"=1]
"mandli/numerical-methods-pdes" -> "mandli/intro-numerical-methods"
"mandli/numerical-methods-pdes" -> "IanHawke/NumericalMethods"
"boschresearch/torchphysics" -> "argonne-lcf/PythonFOAM" ["e"=1]
"vc-bonn/Spline_PINN" -> "vc-bonn/Unsupervised_Deep_Learning_of_Incompressible_Fluid_Dynamics"
"vc-bonn/Spline_PINN" -> "vc-bonn/Teaching_Incompressible_Fluid_Dynamics_to_3D_CNNs"
"OFDataCommittee/OFMLHackathon" -> "OFDataCommittee/mlfoam"
"geoelements/gns" -> "wu375/simple-physics-simulator-pytorch-geometry"
"geoelements/gns" -> "geoelements/diffmpm"
"geoelements/gns" -> "Yihao-Shi/GeoTaichi" ["e"=1]
"geoelements/gns" -> "echowve/meshGraphNets_pytorch"
"geoelements/gns" -> "isl-org/DeepLagrangianFluids"
"geoelements/gns" -> "haeriamin/MPM-NGF"
"Aalto-CFD/DLBFoam-Advanced-Tutorials" -> "Aalto-CFD/CEMAFoam"
"unicfdlab/TrainingTracks" -> "unicfdlab/realLifeExamples"
"venturi123/DRLinFluids" -> "venturi123/DRLinFluids-examples"
"venturi123/DRLinFluids" -> "jerabaul29/Cylinder2DFlowControlDRL"
"venturi123/DRLinFluids" -> "jerabaul29/Cylinder2DFlowControlDRLParallel"
"venturi123/DRLinFluids" -> "DonsetPG/fenics-DRL"
"venturi123/DRLinFluids" -> "KTH-FlowAI/MARL-drag-reduction-in-wall-bounded-flows"
"venturi123/DRLinFluids" -> "timofeymukha/libWallModelledLES"
"ansys/pyfluent" -> "mdribeiro/DeepCFD" ["e"=1]
"ansys/pyfluent" -> "argonne-lcf/PythonFOAM" ["e"=1]
"tumaer/JAXFLUIDS" -> "tumaer/jax-sph" ["e"=1]
"mandli/intro-numerical-methods" -> "mandli/numerical-methods-pdes"
"mandli/intro-numerical-methods" -> "IanHawke/NumericalMethods"
"mandli/intro-numerical-methods" -> "numerical-mooc/numerical-mooc"
"CCSI-Toolset/MGN" -> "wwMark/meshgraphnets"
"echowve/meshGraphNets_pytorch" -> "wwMark/meshgraphnets"
"echowve/meshGraphNets_pytorch" -> "CCSI-Toolset/MGN"
"echowve/meshGraphNets_pytorch" -> "xjwxjw/Pytorch-Learned-Cloth-Simulation"
"echowve/meshGraphNets_pytorch" -> "sungyongs/dpgn"
"echowve/meshGraphNets_pytorch" -> "geoelements/gns"
"echowve/meshGraphNets_pytorch" -> "echowve/phygnnet"
"echowve/meshGraphNets_pytorch" -> "neuraloperator/Geo-FNO" ["e"=1]
"echowve/meshGraphNets_pytorch" -> "Eydcao/BSMS-GNN"
"echowve/meshGraphNets_pytorch" -> "Litianyu141/Finite-Volume-Graph-Network"
"Litianyu141/Finite-Volume-Graph-Network" -> "Litianyu141/Gen-FVGN-steady"
"quercushernandez/ThermodynamicsGNN" -> "sungyongs/dpgn"
"quercushernandez/ThermodynamicsGNN" -> "quercushernandez/StructurePreservingNN"
"nextfoam/baram" -> "ENGYS/HELYX-OS"
"gerlero/openfoam-app" -> "mrklein/openfoam-os-x"
"gerlero/openfoam-app" -> "BrushXue/OpenFOAM-AppleM1"
"gerlero/openfoam-app" -> "WENO-OF/WENOEXT"
"UMN-CRFEL/OpenFOAM-Cantera" -> "kahilah/ct2foam"
"UMN-CRFEL/OpenFOAM-Cantera" -> "ZhangYanTJU/reactingCanteraFoam"
"petebachant/NACAFoil-OpenFOAM" -> "openfoamtutorials/airfoil_validation"
"syguan96/NeuroFluid" -> "isl-org/DeepLagrangianFluids"
"flowkersma/swiftBlock" -> "nogenmyr/swiftBlock"
"snap-stanford/lamp" -> "snap-stanford/le_pde"
"ProjectPhysX/FluidX3D" -> "barbagroup/CFDPython"
"ProjectPhysX/FluidX3D" -> "ProjectPhysX/OpenCL-Wrapper" ["e"=1]
"ProjectPhysX/FluidX3D" -> "su2code/SU2" ["e"=1]
"ProjectPhysX/FluidX3D" -> "tum-pbs/PhiFlow" ["e"=1]
"ProjectPhysX/FluidX3D" -> "InteractiveComputerGraphics/SPlisHSPlasH" ["e"=1]
"ProjectPhysX/FluidX3D" -> "OpenFOAM/OpenFOAM-dev"
"ProjectPhysX/FluidX3D" -> "WaterLily-jl/WaterLily.jl" ["e"=1]
"ProjectPhysX/FluidX3D" -> "doyubkim/fluid-engine-dev" ["e"=1]
"ProjectPhysX/FluidX3D" -> "google/jax-cfd" ["e"=1]
"ProjectPhysX/FluidX3D" -> "PyFR/PyFR" ["e"=1]
"ProjectPhysX/FluidX3D" -> "peterdsharpe/AeroSandbox" ["e"=1]
"ProjectPhysX/FluidX3D" -> "tumaer/JAXFLUIDS" ["e"=1]
"ProjectPhysX/FluidX3D" -> "UnnamedMoose/BasicOpenFOAMProgrammingTutorials"
"ProjectPhysX/FluidX3D" -> "sthavishtha/list-lattice-Boltzmann-codes" ["e"=1]
"ProjectPhysX/FluidX3D" -> "precice/precice" ["e"=1]
"Engine-Simulator/engine-sim-community-edition" -> "ProjectPhysX/FluidX3D" ["e"=1]
"mathLab/PyGeM" -> "ITHACA-FV/ITHACA-FV" ["e"=1]
"deepmodeling/deepflame-dev" -> "UMN-CRFEL/OpenFOAM-Cantera"
"deepmodeling/deepflame-dev" -> "Aalto-CFD/DLBFoam"
"deepmodeling/deepflame-dev" -> "ZSHtju/reactingDNS_OpenFOAM"
"deepmodeling/deepflame-dev" -> "JieSun-pku/detonationFoam"
"deepmodeling/deepflame-dev" -> "duncanam/rhoReactingCentralFoam"
"deepmodeling/deepflame-dev" -> "deepflameCFD/deepflame-dev"
"deepmodeling/deepflame-dev" -> "ZhangYanTJU/reactingCanteraFoam"
"deepmodeling/deepflame-dev" -> "tianhanz/DNN-Models-for-Chemical-Kinetics"
"deepmodeling/deepflame-dev" -> "Aalto-CFD/CEMAFoam"
"deepmodeling/deepflame-dev" -> "WENO-OF/WENOEXT"
"venturi123/DRLinFluids-examples" -> "YiqianMao0502/DRLFluent"
"tianhanz/DNN-Models-for-Chemical-Kinetics" -> "intelligent-algorithm-team/intelligent-combustion"
"intelligent-algorithm-team/intelligent-combustion" -> "tianhanz/DNN-Models-for-Chemical-Kinetics"
"xuan-li/PAC-NeRF" -> "syguan96/NeuroFluid" ["e"=1]
"Extrality/AirfRANS" -> "Extrality/NACA_simulation"
"Extrality/AirfRANS" -> "Extrality/airfrans_lib"
"Extrality/AirfRANS" -> "tum-pbs/Diffusion-based-Flow-Prediction"
"KTH-FlowAI/MARL-drag-reduction-in-wall-bounded-flows" -> "b-fg/SmartSOD2D"
"KTH-FlowAI/MARL-drag-reduction-in-wall-bounded-flows" -> "KTH-FlowAI/FCN-turbulence-predictions-from-wall-quantities"
"speth/ember" -> "blttkgl/DLBFoam-1.0" ["e"=1]
"mathLab/EZyRB" -> "ITHACA-FV/ITHACA-FV" ["e"=1]
"ENGYS/HELYX-OS" -> "jaheyns/CfdOF"
"ENGYS/HELYX-OS" -> "tkeskita/snappyhexmesh_gui"
"ENGYS/HELYX-OS" -> "nextfoam/baram"
"martenlienen/torchode" -> "martenlienen/finite-element-networks"
"martenlienen/torchode" -> "patrick-kidger/diffrax" ["e"=1]
"snap-stanford/le_pde" -> "snap-stanford/lamp"
"geoelements/diffmpm" -> "geoelements/LearnMPM"
"geoelements/LearnMPM" -> "geoelements/diffmpm"
"geoelements/LearnMPM" -> "cb-geo/mpm-benchmarks"
"Weishuo93/NN_Pred" -> "mthsmcd/MachineLearningTurbulenceModels"
"nogenmyr/swiftBlock" -> "nogenmyr/swiftSnap"
"nogenmyr/swiftSnap" -> "nogenmyr/swiftBlock"
"Extrality/NACA_simulation" -> "Extrality/airfrans_lib"
"Autodesk/XLB" -> "tumaer/jax-sph" ["e"=1]
"jrjohansson/scientific-python-lectures" -> "numerical-mooc/numerical-mooc" ["e"=1]
"Kitware/ParaView" -> "OpenFOAM/OpenFOAM-dev" ["e"=1]
"peterdsharpe/NeuralFoil" -> "atharvaaalok/Airfoil-Shape-Optimization-RL" ["e"=1]
"jnmlujnmlu/OpenFOAMTeaching" -> "openfoamtutorials/OpenFOAM_Tutorials_"
"jnmlujnmlu/OpenFOAMTeaching" -> "phresher/OpenFOAM_Tutorials_Plus"
"jnmlujnmlu/OpenFOAMTeaching" -> "UnnamedMoose/BasicOpenFOAMProgrammingTutorials"
"jnmlujnmlu/OpenFOAMTeaching" -> "psu-efd/PSU-OpenFOAM-Course-Notes"
"jnmlujnmlu/OpenFOAMTeaching" -> "openfoamtutorials/openfoam_tutorials"
"jnmlujnmlu/OpenFOAMTeaching" -> "fluiddyn/fluidfoam"
"jnmlujnmlu/OpenFOAMTeaching" -> "argonne-lcf/TensorFlowFoam"
"jnmlujnmlu/OpenFOAMTeaching" -> "SimFlowCFD/RapidCFD-dev"
"jnmlujnmlu/OpenFOAMTeaching" -> "Rvadrabade/Debugging-OpenFOAM-with-Visual-Studio-Code"
"jnmlujnmlu/OpenFOAMTeaching" -> "ParticulateFlow/OSCCAR-doc"
"jnmlujnmlu/OpenFOAMTeaching" -> "ElsevierSoftwareX/SOFTX_2018_143"
"jnmlujnmlu/OpenFOAMTeaching" -> "fppimenta/rheoTool"
"jnmlujnmlu/OpenFOAMTeaching" -> "damogranlabs/classy_blocks"
"jnmlujnmlu/OpenFOAMTeaching" -> "argonne-lcf/PythonFOAM"
"jnmlujnmlu/OpenFOAMTeaching" -> "unicfdlab/TrainingTracks"
"loliverhennigh/Lattice-Boltzmann-fluid-flow-in-Tensorflow" -> "sailfish-team/sailfish" ["e"=1]
"loliverhennigh/Lattice-Boltzmann-fluid-flow-in-Tensorflow" -> "loliverhennigh/Phy-Net"
"loliverhennigh/Lattice-Boltzmann-fluid-flow-in-Tensorflow" -> "loliverhennigh/Steady-State-Flow-With-Neural-Nets"
"loliverhennigh/Lattice-Boltzmann-fluid-flow-in-Tensorflow" -> "CFD-GO/TCLB" ["e"=1]
"qingfengxia/Cfd" -> "jaheyns/CfdOF"
"qingfengxia/Cfd" -> "phresher/OpenFOAM_Tutorials_Plus"
"qingfengxia/Cfd" -> "unicfdlab/TrainingTracks"
"qingfengxia/Cfd" -> "brli3/CFD" ["e"=1]
"qingfengxia/Cfd" -> "qingfengxia/FenicsSolver" ["e"=1]
"tumaer/lagrangebench" -> "tumaer/jax-sph"
"tumaer/lagrangebench" -> "tumaer/neuralsph"
"mthsmcd/MachineLearningTurbulenceModels" -> "Weishuo93/NN_Pred"
"cselab/Mirheo" -> "cselab/old_korali"
"tumaer/jax-sph" -> "tumaer/lagrangebench"
"unicfdlab/hybridCentralSolvers" -> "WENO-OF/WENOEXT"
"unicfdlab/hybridCentralSolvers" -> "advanCFD/libROUNDSchemes"
"unicfdlab/hybridCentralSolvers" -> "Aalto-CFD/DLBFoam"
"unicfdlab/hybridCentralSolvers" -> "imfd-stroemungsmechanik/atomizationFoam"
"unicfdlab/hybridCentralSolvers" -> "danhnam11/realFluidThermophysicalModels-6"
"unicfdlab/hybridCentralSolvers" -> "duncanam/rhoReactingCentralFoam"
"lbm-principles-practice/code" -> "loliverhennigh/Lattice-Boltzmann-fluid-flow-in-Tensorflow" ["e"=1]
"google/FluidNet" -> "loliverhennigh/Phy-Net"
"google/FluidNet" -> "rlguy/GridFluidSim3D" ["e"=1]
"google/FluidNet" -> "byungsook/deep-fluids"
"google/FluidNet" -> "loliverhennigh/Computational-Fluid-Dynamics-Machine-Learning-Examples"
"google/FluidNet" -> "thunil/Deep-Flow-Prediction"
"google/FluidNet" -> "jolibrain/fluidnet_cxx"
"google/FluidNet" -> "google-research/data-driven-advection" ["e"=1]
"google/FluidNet" -> "google/data-driven-discretization-1d" ["e"=1]
"google/FluidNet" -> "loliverhennigh/Steady-State-Flow-With-Neural-Nets"
"google/FluidNet" -> "PyFR/PyFR" ["e"=1]
"google/FluidNet" -> "loliverhennigh/Lattice-Boltzmann-fluid-flow-in-Tensorflow"
"google/FluidNet" -> "loliverhennigh/Computational-Physics-and-Machine-Learning-Reading-List"
"google/FluidNet" -> "thunil/Physics-Based-Deep-Learning" ["e"=1]
"google/FluidNet" -> "maziarraissi/HFM" ["e"=1]
"google/FluidNet" -> "InteractiveComputerGraphics/SPlisHSPlasH" ["e"=1]
"WillDreamer/Awesome-AI4CFD" -> "ikespand/awesome-machine-learning-fluid-mechanics" ["e"=1]
"jaheyns/CfdOF" -> "qingfengxia/Cfd"
"jaheyns/CfdOF" -> "ENGYS/HELYX-OS"
"jaheyns/CfdOF" -> "tkeskita/snappyhexmesh_gui"
"jaheyns/CfdOF" -> "UnnamedMoose/BasicOpenFOAMProgrammingTutorials"
"jaheyns/CfdOF" -> "synthetik-technologies/blastfoam"
"jaheyns/CfdOF" -> "SimFlowCFD/RapidCFD-dev"
"jaheyns/CfdOF" -> "psu-efd/PSU-OpenFOAM-Course-Notes"
"jaheyns/CfdOF" -> "precice/precice" ["e"=1]
"jaheyns/CfdOF" -> "openfoamtutorials/OpenFOAM_Tutorials_"
"jaheyns/CfdOF" -> "jnmlujnmlu/OpenFOAMTeaching"
"jaheyns/CfdOF" -> "hkroeger/insightcae"
"jaheyns/CfdOF" -> "damogranlabs/classy_blocks"
"jaheyns/CfdOF" -> "precise-simulation/featool-multiphysics" ["e"=1]
"jaheyns/CfdOF" -> "hystrath/hyStrath" ["e"=1]
"jaheyns/CfdOF" -> "Aalto-CFD/DLBFoam"
"isoAdvector/isoAdvector" -> "DLR-RY/TwoPhaseFlow"
"isoAdvector/isoAdvector" -> "DLR-RY/VoFLibrary"
"isoAdvector/isoAdvector" -> "daidezhi/interPlicFoam"
"loliverhennigh/Phy-Net" -> "loliverhennigh/Steady-State-Flow-With-Neural-Nets"
"loliverhennigh/Phy-Net" -> "loliverhennigh/Computational-Fluid-Dynamics-Machine-Learning-Examples"
"loliverhennigh/Phy-Net" -> "loliverhennigh/Computational-Physics-and-Machine-Learning-Reading-List"
"loliverhennigh/Phy-Net" -> "loliverhennigh/Lattice-Boltzmann-fluid-flow-in-Tensorflow"
"hystrath/hyStrath" -> "synthetik-technologies/blastfoam" ["e"=1]
"hystrath/hyStrath" -> "WENO-OF/WENOEXT" ["e"=1]
"hystrath/hyStrath" -> "unicfdlab/hybridCentralSolvers" ["e"=1]
"hystrath/hyStrath" -> "duncanam/rhoReactingCentralFoam" ["e"=1]
"hystrath/hyStrath" -> "ElsevierSoftwareX/SOFTX_2018_143" ["e"=1]
"hystrath/hyStrath" -> "Aalto-CFD/DLBFoam" ["e"=1]
"exasim-project/NeoN" -> "exasim-project/FoamAdapter"
"exasim-project/NeoN" -> "STFS-TUDa/blastAMR"
"exasim-project/NeoN" -> "hpsim/OGL"
"exasim-project/NeoN" -> "exasim-project/opi"
"exasim-project/NeoN" -> "advanCFD/libROUNDSchemes"
"openfoamtutorials/openfoam_tutorials" -> "phresher/OpenFOAM_Tutorials_Plus"
"openfoamtutorials/openfoam_tutorials" -> "unicfdlab/TwoDaysFoamProgrammingCourse"
"openfoamtutorials/openfoam_tutorials" -> "psu-efd/PSU-OpenFOAM-Course-Notes"
"openfoamtutorials/openfoam_tutorials" -> "petebachant/NACAFoil-OpenFOAM"
"openfoamtutorials/openfoam_tutorials" -> "openfoamtutorials/OpenFOAM_Tutorials_"
"Yihao-Shi/GeoTaichi" -> "geoelements/diffmpm" ["e"=1]
"fppimenta/rheoTool" -> "phorgue/porousMultiphaseFoam"
"fppimenta/rheoTool" -> "ElsevierSoftwareX/SOFTX_2018_143"
"fppimenta/rheoTool" -> "ChenguangZhang/sdfibm" ["e"=1]
"fppimenta/rheoTool" -> "Rvadrabade/Debugging-OpenFOAM-with-Visual-Studio-Code"
"fppimenta/rheoTool" -> "unicfdlab/TrainingTracks"
"fppimenta/rheoTool" -> "argonne-lcf/TensorFlowFoam"
"fppimenta/rheoTool" -> "SimFlowCFD/RapidCFD-dev"
"fppimenta/rheoTool" -> "DLR-RY/TwoPhaseFlow"
"vttresearch/gpuFoam" -> "kahilah/ct2foam"
"precise-simulation/featool-multiphysics" -> "jaheyns/CfdOF" ["e"=1]
"loliverhennigh/Steady-State-Flow-With-Neural-Nets" -> "loliverhennigh/Phy-Net"
"loliverhennigh/Steady-State-Flow-With-Neural-Nets" -> "loliverhennigh/Computational-Fluid-Dynamics-Machine-Learning-Examples"
"loliverhennigh/Steady-State-Flow-With-Neural-Nets" -> "loliverhennigh/Lattice-Boltzmann-fluid-flow-in-Tensorflow"
"loliverhennigh/Steady-State-Flow-With-Neural-Nets" -> "thunil/Deep-Flow-Prediction"
"loliverhennigh/Steady-State-Flow-With-Neural-Nets" -> "YunchaoYang/Machine_Learning_Fluid_Dynamics"
"loliverhennigh/Steady-State-Flow-With-Neural-Nets" -> "mdribeiro/DeepCFD"
"loliverhennigh/Steady-State-Flow-With-Neural-Nets" -> "loliverhennigh/Computational-Physics-and-Machine-Learning-Reading-List"
"loliverhennigh/Steady-State-Flow-With-Neural-Nets" -> "loliverhennigh/latnet"
"loliverhennigh/Steady-State-Flow-With-Neural-Nets" -> "AndreWeiner/machine-learning-applied-to-cfd"
"gerlero/setup-openfoam" -> "exasim-project/FoamAdapter"
"automeris-io/WebPlotDigitizer" -> "barbagroup/CFDPython" ["e"=1]
"loliverhennigh/Computational-Fluid-Dynamics-Machine-Learning-Examples" -> "AndreWeiner/machine-learning-applied-to-cfd"
"loliverhennigh/Computational-Fluid-Dynamics-Machine-Learning-Examples" -> "loliverhennigh/Phy-Net"
"loliverhennigh/Computational-Fluid-Dynamics-Machine-Learning-Examples" -> "YunchaoYang/Machine_Learning_Fluid_Dynamics"
"loliverhennigh/Computational-Fluid-Dynamics-Machine-Learning-Examples" -> "loliverhennigh/Steady-State-Flow-With-Neural-Nets"
"loliverhennigh/Computational-Fluid-Dynamics-Machine-Learning-Examples" -> "loliverhennigh/Computational-Physics-and-Machine-Learning-Reading-List"
"loliverhennigh/Computational-Fluid-Dynamics-Machine-Learning-Examples" -> "thunil/Deep-Flow-Prediction"
"loliverhennigh/Computational-Fluid-Dynamics-Machine-Learning-Examples" -> "ikespand/awesome-machine-learning-fluid-mechanics"
"loliverhennigh/Computational-Fluid-Dynamics-Machine-Learning-Examples" -> "mdribeiro/DeepCFD"
"loliverhennigh/Computational-Fluid-Dynamics-Machine-Learning-Examples" -> "AndreWeiner/ml-cfd-lecture"
"loliverhennigh/Computational-Fluid-Dynamics-Machine-Learning-Examples" -> "argonne-lcf/TensorFlowFoam"
"loliverhennigh/Computational-Fluid-Dynamics-Machine-Learning-Examples" -> "loliverhennigh/Lattice-Boltzmann-fluid-flow-in-Tensorflow"
"loliverhennigh/Computational-Fluid-Dynamics-Machine-Learning-Examples" -> "Saakaarb/Deep-Learning-for-Aerodynamic-Prediction"
"loliverhennigh/Computational-Fluid-Dynamics-Machine-Learning-Examples" -> "SimFlowCFD/RapidCFD-dev"
"UnnamedMoose/BasicOpenFOAMProgrammingTutorials" -> "jnmlujnmlu/OpenFOAMTeaching"
"UnnamedMoose/BasicOpenFOAMProgrammingTutorials" -> "openfoamtutorials/OpenFOAM_Tutorials_"
"UnnamedMoose/BasicOpenFOAMProgrammingTutorials" -> "psu-efd/PSU-OpenFOAM-Course-Notes"
"UnnamedMoose/BasicOpenFOAMProgrammingTutorials" -> "phresher/OpenFOAM_Tutorials_Plus"
"UnnamedMoose/BasicOpenFOAMProgrammingTutorials" -> "SimFlowCFD/RapidCFD-dev"
"UnnamedMoose/BasicOpenFOAMProgrammingTutorials" -> "OpenFOAM/OpenFOAM-dev"
"UnnamedMoose/BasicOpenFOAMProgrammingTutorials" -> "synthetik-technologies/blastfoam"
"UnnamedMoose/BasicOpenFOAMProgrammingTutorials" -> "ParticulateFlow/OSCCAR-doc"
"UnnamedMoose/BasicOpenFOAMProgrammingTutorials" -> "argonne-lcf/TensorFlowFoam"
"UnnamedMoose/BasicOpenFOAMProgrammingTutorials" -> "jaheyns/CfdOF"
"UnnamedMoose/BasicOpenFOAMProgrammingTutorials" -> "surajp92/CFD_Julia" ["e"=1]
"UnnamedMoose/BasicOpenFOAMProgrammingTutorials" -> "ChenguangZhang/sdfibm" ["e"=1]
"UnnamedMoose/BasicOpenFOAMProgrammingTutorials" -> "fluiddyn/fluidfoam"
"UnnamedMoose/BasicOpenFOAMProgrammingTutorials" -> "WENO-OF/WENOEXT"
"UnnamedMoose/BasicOpenFOAMProgrammingTutorials" -> "precice/precice" ["e"=1]
"WENO-OF/WENOEXT" -> "Aalto-CFD/DLBFoam"
"WENO-OF/WENOEXT" -> "unicfdlab/hybridCentralSolvers"
"WENO-OF/WENOEXT" -> "ElsevierSoftwareX/SOFTX_2018_143"
"unicfdlab/QGDsolver" -> "advanCFD/libROUNDSchemes"
"barbagroup/CFDPython" ["l"="63.48,-2.809"]
"barbagroup/AeroPython" ["l"="62.801,-2.163", "c"=1176]
"UnnamedMoose/BasicOpenFOAMProgrammingTutorials" ["l"="63.479,-2.731"]
"su2code/SU2" ["l"="63.171,-1.565", "c"=175]
"numerical-mooc/numerical-mooc" ["l"="63.53,-2.804"]
"surajp92/CFD_Julia" ["l"="63.306,-1.601", "c"=175]
"ProjectPhysX/FluidX3D" ["l"="63.484,-2.865"]
"OpenFOAM/OpenFOAM-dev" ["l"="63.497,-2.768"]
"tum-pbs/PhiFlow" ["l"="21.772,15.86", "c"=516]
"thu-zhanghl/CFD101" ["l"="63.455,-2.736"]
"google/jax-cfd" ["l"="21.751,15.857", "c"=516]
"PyFR/PyFR" ["l"="63.226,-1.553", "c"=175]
"lululxvi/deepxde" ["l"="21.758,15.917", "c"=516]
"maziarraissi/PINNs" ["l"="21.719,15.926", "c"=516]
"jaheyns/CfdOF" ["l"="63.442,-2.695"]
"nschloe/meshio" ["l"="62.794,0.265", "c"=403]
"CoolProp/CoolProp" ["l"="51.343,25.627", "c"=1275]
"DLR-RY/VoFLibrary" ["l"="63.429,-2.797"]
"DLR-RY/TwoPhaseFlow" ["l"="63.429,-2.77"]
"isoAdvector/isoAdvector" ["l"="63.453,-2.779"]
"DLR-RY/caseFoam" ["l"="63.408,-2.809"]
"maziarraissi/HFM" ["l"="21.827,16.052", "c"=516]
"thunil/Deep-Flow-Prediction" ["l"="63.541,-2.535"]
"AndreWeiner/machine-learning-applied-to-cfd" ["l"="63.484,-2.629"]
"mrklein/openfoam-os-x" ["l"="63.598,-2.794"]
"BrushXue/OpenFOAM-AppleM1" ["l"="63.582,-2.8"]
"gerlero/openfoam-app" ["l"="63.562,-2.776"]
"ZichaoLong/PDE-Net" ["l"="21.865,16.039", "c"=516]
"byungsook/deep-fluids" ["l"="63.555,-2.443"]
"loliverhennigh/Computational-Fluid-Dynamics-Machine-Learning-Examples" ["l"="63.503,-2.589"]
"tkeskita/mesh_heal" ["l"="63.276,-2.582"]
"tkeskita/unstructured_grids" ["l"="63.295,-2.617"]
"ChenguangZhang/sdfibm" ["l"="63.331,-1.518", "c"=175]
"WENO-OF/WENOEXT" ["l"="63.445,-2.715"]
"daidezhi/interPlicFoam" ["l"="63.425,-2.838"]
"eric2003/OneFLOW" ["l"="63.213,-1.567", "c"=175]
"SimFlowCFD/RapidCFD-dev" ["l"="63.472,-2.701"]
"synthetik-technologies/blastfoam" ["l"="63.432,-2.738"]
"tkeskita/io_mesh_vtk" ["l"="63.275,-2.606"]
"nogenmyr/swiftSnap" ["l"="63.303,-2.643"]
"ElmerCSC/elmerfem" ["l"="63.009,-1.512", "c"=175]
"thunil/Physics-Based-Deep-Learning" ["l"="21.708,15.89", "c"=516]
"DualSPHysics/DualSPHysics" ["l"="62.642,0.994", "c"=371]
"NVIDIA/AMGX" ["l"="63.137,-1.54", "c"=175]
"ITHACA-FV/ITHACA-FV" ["l"="63.476,-2.668"]
"FlowModelingControl/flowtorch" ["l"="63.441,-2.636"]
"mathLab/EZyRB" ["l"="63.045,-1.761", "c"=175]
"IllinoisRocstar/AccelerateCFD_CE" ["l"="63.533,-2.657"]
"ParticulateFlow/OSCCAR-doc" ["l"="63.467,-2.719"]
"phresher/OpenFOAM_Tutorials_Plus" ["l"="63.507,-2.697"]
"argonne-lcf/TensorFlowFoam" ["l"="63.483,-2.653"]
"ElsevierSoftwareX/SOFTX_2018_143" ["l"="63.458,-2.714"]
"psu-efd/PSU-OpenFOAM-Course-Notes" ["l"="63.489,-2.707"]
"argonne-lcf/PythonFOAM" ["l"="63.456,-2.668"]
"je-santos/MPLBM-UT" ["l"="62.751,1.432", "c"=371]
"Franjcf/hybridPorousInterFoam" ["l"="63.585,-2.711"]
"ImperialCollegeLondon/porefoam" ["l"="63.577,-2.728"]
"PMEAL/OpenPNM" ["l"="62.772,1.482", "c"=371]
"daidezhi/geometricVofExt" ["l"="63.409,-2.871"]
"mdolab/dafoam" ["l"="62.727,-2.23", "c"=1176]
"unicfdlab/hybridCentralSolvers" ["l"="63.405,-2.735"]
"damogranlabs/classy_blocks" ["l"="63.424,-2.718"]
"fluiddyn/fluidfoam" ["l"="63.46,-2.684"]
"halbux/sparselizard" ["l"="63.073,-1.475", "c"=175]
"cselab/korali" ["l"="63.793,-2.558"]
"cselab/Mirheo" ["l"="63.791,-2.579"]
"SedFoam/sedfoam" ["l"="63.376,-1.244", "c"=175]
"jnmlujnmlu/OpenFOAMTeaching" ["l"="63.487,-2.694"]
"Aalto-CFD/DLBFoam" ["l"="63.414,-2.698"]
"xu-xianghua/ofpp" ["l"="63.435,-2.661"]
"syavash20/TurbLab" ["l"="63.511,-2.639"]
"thunil/tempoGAN" ["l"="63.584,-2.412"]
"maxwerhahn/Multi-pass-GAN" ["l"="63.604,-2.392"]
"wiewel/LatentSpaceSubdivision" ["l"="63.596,-2.432"]
"wiewel/LatentSpacePhysics" ["l"="63.582,-2.443"]
"byungsook/neural-flow-style" ["l"="63.535,-2.425"]
"RachelCmy/mantaPatch" ["l"="63.55,-2.406"]
"vc-bonn/Unsupervised_Deep_Learning_of_Incompressible_Fluid_Dynamics" ["l"="63.579,-2.482"]
"RachelCmy/den2vel" ["l"="63.562,-2.422"]
"isl-org/DeepLagrangianFluids" ["l"="63.551,-2.36"]
"loliverhennigh/Computational-Physics-and-Machine-Learning-Reading-List" ["l"="63.49,-2.565"]
"loliverhennigh/Phy-Net" ["l"="63.514,-2.549"]
"YunchaoYang/Machine_Learning_Fluid_Dynamics" ["l"="63.487,-2.586"]
"loliverhennigh/Steady-State-Flow-With-Neural-Nets" ["l"="63.511,-2.568"]
"cics-nd/rans-uncertainty" ["l"="63.462,-2.592"]
"jerabaul29/Cylinder2DFlowControlDRL" ["l"="63.684,-2.542"]
"jerabaul29/Cylinder2DFlowControlDRLParallel" ["l"="63.701,-2.537"]
"DonsetPG/fenics-DRL" ["l"="63.71,-2.555"]
"thw1021/Cylinder2DFlowControlGeneral" ["l"="63.717,-2.538"]
"venturi123/DRLinFluids" ["l"="63.672,-2.561"]
"cfl-minds/drl_shape_optimization" ["l"="63.731,-2.527"]
"LiuYangMage/RLFluidControl" ["l"="63.699,-2.517"]
"vbelus/falling-liquid-film-drl" ["l"="63.716,-2.514"]
"Omegastick/pytorch-cpp-rl" ["l"="53.33,32.937", "c"=251]
"cselab/smarties" ["l"="63.754,-2.559"]
"cselab/MARL_LES" ["l"="63.776,-2.541"]
"hjbae/SciMARL_WMLES" ["l"="63.764,-2.582"]
"cselab/CubismUP_3D" ["l"="63.774,-2.558"]
"fedackb/mesh-fairing" ["l"="-32.932,-27.631", "c"=185]
"ikespand/awesome-machine-learning-fluid-mechanics" ["l"="63.482,-2.605"]
"AndreWeiner/ml-cfd-lecture" ["l"="63.466,-2.639"]
"mdribeiro/DeepCFD" ["l"="63.503,-2.616"]
"xiaoh/turbulence-modeling-PIML" ["l"="63.463,-2.616"]
"lesgo-jhu/lesgo" ["l"="63.272,-1.573", "c"=175]
"jolibrain/fluidnet_cxx" ["l"="63.48,-2.482"]
"kristofe/manta" ["l"="63.462,-2.463"]
"mthsmcd/MachineLearningTurbulenceModels" ["l"="63.426,-2.548"]
"code-saturne/code_saturne" ["l"="63.259,-1.574", "c"=175]
"OpenQBMM/OpenQBMM" ["l"="63.439,-2.756"]
"HiFiLES/HiFiLES-solver" ["l"="63.256,-1.555", "c"=175]
"locuslab/cfd-gcn" ["l"="63.527,-2.46"]
"Extrality/AirfRANS" ["l"="63.587,-2.532"]
"Raocp/PINN-laminar-flow" ["l"="21.731,16.044", "c"=516]
"tum-pbs/Diffusion-based-Flow-Prediction" ["l"="63.57,-2.52"]
"precice/openfoam-adapter" ["l"="62.957,-1.446", "c"=175]
"fppimenta/rheoTool" ["l"="63.507,-2.711"]
"jiweiqi/CollectionOfMechanisms" ["l"="51.447,25.689", "c"=1275]
"Aalto-CFD/CEMAFoam" ["l"="63.344,-2.717"]
"tkeskita/BVtkNodes" ["l"="63.258,-2.615"]
"tkeskita/swiftBlock" ["l"="63.314,-2.632"]
"cwant/VTKBlender" ["l"="63.222,-2.622"]
"simboden/BVtkNodes" ["l"="63.222,-2.595"]
"jviquerat/pbo" ["l"="63.744,-2.507"]
"atharvaaalok/Airfoil-Shape-Optimization-RL" ["l"="63.758,-2.515"]
"HopeFOAM/HopeFOAM" ["l"="63.513,-2.738"]
"tkeskita/snappyhexmesh_gui" ["l"="63.354,-2.65"]
"ENGYS/HELYX-OS" ["l"="63.374,-2.667"]
"ECMWFCode4Earth/sci_vis" ["l"="63.2,-2.585"]
"smenon/dynamicTopoFvMesh" ["l"="63.591,-2.775"]
"chanko08/mesh_refine" ["l"="63.619,-2.782"]
"tgvoskuilen/meshBalancing" ["l"="63.538,-2.766"]
"timofeymukha/libWallModelledLES" ["l"="63.599,-2.6"]
"SLACKHA/pyJac" ["l"="51.474,25.669", "c"=1275]
"kahilah/ct2foam" ["l"="63.347,-2.685"]
"openfoamtutorials/OpenFOAM_Tutorials_" ["l"="63.499,-2.726"]
"precice/precice" ["l"="63.046,-1.494", "c"=175]
"Kitware/ParaView" ["l"="61.932,35.846", "c"=424]
"dealii/dealii" ["l"="63.067,-1.536", "c"=175]
"ucns3d-team/UCNS3D" ["l"="63.247,-1.549", "c"=175]
"mfem/mfem" ["l"="63.053,-1.523", "c"=175]
"Nek5000/Nek5000" ["l"="63.204,-1.546", "c"=175]
"sailfish-team/sailfish" ["l"="62.72,1.343", "c"=371]
"loliverhennigh/Lattice-Boltzmann-fluid-flow-in-Tensorflow" ["l"="63.497,-2.544"]
"FluidityProject/fluidity" ["l"="63.266,-1.589", "c"=175]
"IanHawke/NumericalMethods" ["l"="63.551,-2.854"]
"mandli/intro-numerical-methods" ["l"="63.564,-2.834"]
"spectralDNS/spectralDNS" ["l"="63.239,-1.6", "c"=175]
"mandli/numerical-methods-pdes" ["l"="63.574,-2.855"]
"firedrakeproject/firedrake" ["l"="63.048,-1.601", "c"=175]
"hplgit/num-methods-for-PDEs" ["l"="63.083,-1.747", "c"=175]
"python-hydro/pyro2" ["l"="63.367,-1.65", "c"=175]
"jrjohansson/scientific-python-lectures" ["l"="48.113,28.299", "c"=89]
"barbagroup/numba_tutorial_scipy2016" ["l"="44.064,23.877", "c"=95]
"quercushernandez/StructurePreservingNN" ["l"="63.5,-2.103"]
"quercushernandez/DeepLearningMOR" ["l"="63.484,-2.089"]
"markummitchell/engauge-digitizer" ["l"="-34.206,16.959", "c"=652]
"brli3/CFD" ["l"="63.34,-1.61", "c"=175]
"mhamadmahdialloush/uFVM" ["l"="63.386,-1.617", "c"=175]
"jxzisacfder/Coll4CFD" ["l"="63.404,-2.721"]
"IBAMR/IBAMR" ["l"="63.212,-1.523", "c"=175]
"Xiangyu-Hu/SPHinXsys" ["l"="62.669,1.011", "c"=371]
"bueler/p4pdes" ["l"="63.175,-1.3", "c"=175]
"luo-yining/CFDBench" ["l"="21.864,15.913", "c"=516]
"duncanam/rhoReactingCentralFoam" ["l"="63.382,-2.734"]
"ZSHtju/reactingDNS_OpenFOAM" ["l"="63.375,-2.702"]
"neuraloperator/graph-pde" ["l"="21.829,15.933", "c"=516]
"kaist-silab/awesome-graph-pde" ["l"="63.555,-2.048"]
"phorgue/porousMultiphaseFoam" ["l"="63.548,-2.721"]
"Franjcf/hybridBiotInterFoam" ["l"="63.594,-2.726"]
"csoulain/porousMedia4Foam" ["l"="63.605,-2.709"]
"cselab/aphros" ["l"="63.311,-1.536", "c"=175]
"exasim-project/NeoN" ["l"="63.38,-2.78"]
"Rvadrabade/Debugging-OpenFOAM-with-Visual-Studio-Code" ["l"="63.475,-2.684"]
"timofeymukha/turbulucid" ["l"="63.537,-2.633"]
"hystrath/hyStrath" ["l"="63.247,-1.628", "c"=175]
"JieSun-pku/detonationFoam" ["l"="63.38,-2.752"]
"HenningScheufler/multiDimAMR" ["l"="63.472,-2.753"]
"STFS-TUDa/blastAMR" ["l"="63.406,-2.76"]
"AMReX-Combustion/PeleC" ["l"="63.223,-1.583", "c"=175]
"philipmorrisintl/aerosolved" ["l"="63.401,-2.782"]
"OpenFOAM/OpenFOAM-8" ["l"="63.477,-1.001", "c"=175]
"csoulain/hybridPorousFoam" ["l"="63.633,-2.708"]
"Shengfeng233/PINN-for-NS-equation" ["l"="21.724,16.076", "c"=516]
"zbyandmoon/DeepCFD_with_PaddlePaddle" ["l"="63.537,-2.605"]
"BaratiLab/Diffusion-based-Fluid-Super-resolution" ["l"="21.911,15.937", "c"=516]
"WillDreamer/Awesome-AI4CFD" ["l"="21.909,15.956", "c"=516]
"hpsim/OGL" ["l"="63.348,-2.797"]
"exasim-project/FoamAdapter" ["l"="63.347,-2.813"]
"tum-pbs/Solver-in-the-Loop" ["l"="21.685,15.853", "c"=516]
"sungyongs/dpgn" ["l"="63.544,-2.136"]
"yakovlev31/graphpdes_experiments" ["l"="63.55,-2.091"]
"yakovlev31/graphpdes" ["l"="63.548,-2.109"]
"quercushernandez/ThermodynamicsGNN" ["l"="63.521,-2.122"]
"USC-Melady/ICLR2020-PADGN" ["l"="63.57,-2.125"]
"venturi123/DRLinFluids-examples" ["l"="63.699,-2.576"]
"cfl-minds/gnn_laminar_flow" ["l"="63.506,-2.446"]
"snap-stanford/lamp" ["l"="63.497,-2.426"]
"OFDataCommittee/mlfoam" ["l"="63.415,-2.6"]
"darshan315/flow_past_cylinder_by_DRL" ["l"="63.391,-2.616"]
"AndreWeiner/phd_openfoam" ["l"="63.408,-2.623"]
"NHERI-SimCenter/TurbulenceInflowTool" ["l"="63.397,-2.596"]
"imfd-stroemungsmechanik/atomizationFoam" ["l"="63.384,-2.714"]
"TonkomoLLC/multiRegionReactingFoam" ["l"="63.398,-2.685"]
"syguan96/NeuroFluid" ["l"="63.524,-2.36"]
"tum-pbs/DMCF" ["l"="63.567,-2.336"]
"BaratiLab/FGN" ["l"="63.544,-2.334"]
"geoelements/gns" ["l"="63.551,-2.285"]
"kks32/learning_to_simulate" ["l"="63.575,-2.358"]
"tumaer/lagrangebench" ["l"="63.598,-2.333"]
"YunzhuLi/DPI-Net" ["l"="59.996,16.415", "c"=234]
"wu375/simple-physics-simulator-pytorch-geometry" ["l"="63.55,-2.312"]
"cschenck/SmoothParticleNets" ["l"="63.52,-2.336"]
"tum-pbs/Global-Flow-Transport" ["l"="63.622,-2.419"]
"Cantera/cantera" ["l"="51.38,25.654", "c"=1275]
"firemodels/fds" ["l"="34.622,2.445", "c"=308]
"lento234/awesome-fluid-dynamics" ["l"="63.311,-1.566", "c"=175]
"Nek5000/nekRS" ["l"="63.155,-1.529", "c"=175]
"lanl/MF-LBM" ["l"="62.723,1.384", "c"=371]
"Ceyron/machine-learning-and-simulation" ["l"="21.724,15.861", "c"=516]
"OFDataCommittee/drlfoam" ["l"="63.441,-2.602"]
"AndreWeiner/turbulence_modelling_lecture" ["l"="63.431,-2.616"]
"OFDataCommittee/OFMLHackathon" ["l"="63.429,-2.586"]
"rlguy/GridFluidSim3D" ["l"="62.747,1.082", "c"=371]
"google/FluidNet" ["l"="63.511,-2.514"]
"MahdiNabil/CFD-PC" ["l"="63.385,-2.83"]
"wyldckat/evapVOFHardt" ["l"="63.364,-2.86"]
"ZhangYanTJU/reactingCanteraFoam" ["l"="63.346,-2.704"]
"blttkgl/DLBFoam-1.0" ["l"="63.415,-2.67"]
"UMN-CRFEL/OpenFOAM-Cantera" ["l"="63.363,-2.697"]
"ladybug-tools/butterfly" ["l"="62.13,0.701", "c"=1001]
"openfoamtutorials/openfoam_tutorials" ["l"="63.528,-2.712"]
"unicfdlab/TrainingTracks" ["l"="63.531,-2.688"]
"vc-bonn/Teaching_Incompressible_Fluid_Dynamics_to_3D_CNNs" ["l"="63.602,-2.486"]
"vc-bonn/Spline_PINN" ["l"="63.605,-2.469"]
"kaist-silab/graphsplinenets" ["l"="63.575,-2.04"]
"martenlienen/finite-element-networks" ["l"="63.554,-2.011"]
"xiaoh/sediFoam" ["l"="63.355,-1.249", "c"=175]
"wwMark/meshgraphnets" ["l"="63.551,-2.19"]
"echowve/meshGraphNets_pytorch" ["l"="63.547,-2.215"]
"CCSI-Toolset/MGN" ["l"="63.534,-2.184"]
"ange-yaghi/engine-sim" ["l"="-24.879,-28.115", "c"=145]
"unicfdlab/libAcoustics" ["l"="62.755,-2.292", "c"=1176]
"ProjectPhysX/OpenCL-Wrapper" ["l"="64.257,-2.154", "c"=477]
"boschresearch/torchphysics" ["l"="21.783,15.939", "c"=516]
"geoelements/diffmpm" ["l"="63.579,-2.265"]
"Yihao-Shi/GeoTaichi" ["l"="62.713,1.092", "c"=371]
"haeriamin/MPM-NGF" ["l"="63.53,-2.269"]
"Aalto-CFD/DLBFoam-Advanced-Tutorials" ["l"="63.307,-2.718"]
"unicfdlab/realLifeExamples" ["l"="63.565,-2.676"]
"KTH-FlowAI/MARL-drag-reduction-in-wall-bounded-flows" ["l"="63.677,-2.511"]
"ansys/pyfluent" ["l"="63.097,-1.052", "c"=175]
"tumaer/JAXFLUIDS" ["l"="63.257,-1.606", "c"=175]
"tumaer/jax-sph" ["l"="63.622,-2.329"]
"xjwxjw/Pytorch-Learned-Cloth-Simulation" ["l"="63.516,-2.202"]
"echowve/phygnnet" ["l"="63.574,-2.218"]
"neuraloperator/Geo-FNO" ["l"="21.846,15.918", "c"=516]
"Eydcao/BSMS-GNN" ["l"="63.521,-2.225"]
"Litianyu141/Finite-Volume-Graph-Network" ["l"="63.579,-2.193"]
"Litianyu141/Gen-FVGN-steady" ["l"="63.599,-2.177"]
"nextfoam/baram" ["l"="63.334,-2.66"]
"petebachant/NACAFoil-OpenFOAM" ["l"="63.588,-2.743"]
"openfoamtutorials/airfoil_validation" ["l"="63.621,-2.751"]
"flowkersma/swiftBlock" ["l"="63.256,-2.654"]
"nogenmyr/swiftBlock" ["l"="63.28,-2.647"]
"snap-stanford/le_pde" ["l"="63.482,-2.411"]
"InteractiveComputerGraphics/SPlisHSPlasH" ["l"="62.69,1.061", "c"=371]
"WaterLily-jl/WaterLily.jl" ["l"="22.13,16.87", "c"=77]
"doyubkim/fluid-engine-dev" ["l"="-24.746,-27.842", "c"=145]
"peterdsharpe/AeroSandbox" ["l"="62.786,-2.194", "c"=1176]
"sthavishtha/list-lattice-Boltzmann-codes" ["l"="62.711,1.359", "c"=371]
"Engine-Simulator/engine-sim-community-edition" ["l"="-24.872,-28.065", "c"=145]
"mathLab/PyGeM" ["l"="62.894,0.322", "c"=403]
"deepmodeling/deepflame-dev" ["l"="63.361,-2.725"]
"deepflameCFD/deepflame-dev" ["l"="63.329,-2.738"]
"tianhanz/DNN-Models-for-Chemical-Kinetics" ["l"="63.309,-2.745"]
"YiqianMao0502/DRLFluent" ["l"="63.713,-2.593"]
"intelligent-algorithm-team/intelligent-combustion" ["l"="63.286,-2.753"]
"xuan-li/PAC-NeRF" ["l"="64.313,3.227", "c"=49]
"Extrality/NACA_simulation" ["l"="63.611,-2.525"]
"Extrality/airfrans_lib" ["l"="63.608,-2.541"]
"b-fg/SmartSOD2D" ["l"="63.694,-2.49"]
"KTH-FlowAI/FCN-turbulence-predictions-from-wall-quantities" ["l"="63.677,-2.486"]
"speth/ember" ["l"="51.475,25.688", "c"=1275]
"martenlienen/torchode" ["l"="63.554,-1.979"]
"patrick-kidger/diffrax" ["l"="21.779,14.095", "c"=267]
"geoelements/LearnMPM" ["l"="63.599,-2.255"]
"cb-geo/mpm-benchmarks" ["l"="63.618,-2.244"]
"Weishuo93/NN_Pred" ["l"="63.411,-2.53"]
"Autodesk/XLB" ["l"="21.939,14.07", "c"=267]
"peterdsharpe/NeuralFoil" ["l"="62.765,-2.173", "c"=1176]
"CFD-GO/TCLB" ["l"="62.703,1.374", "c"=371]
"qingfengxia/Cfd" ["l"="63.504,-2.671"]
"qingfengxia/FenicsSolver" ["l"="62.975,-1.822", "c"=175]
"tumaer/neuralsph" ["l"="63.612,-2.309"]
"cselab/old_korali" ["l"="63.812,-2.588"]
"advanCFD/libROUNDSchemes" ["l"="63.357,-2.773"]
"danhnam11/realFluidThermophysicalModels-6" ["l"="63.358,-2.753"]
"lbm-principles-practice/code" ["l"="62.691,1.356", "c"=371]
"google-research/data-driven-advection" ["l"="21.926,16.042", "c"=516]
"google/data-driven-discretization-1d" ["l"="21.898,16.016", "c"=516]
"hkroeger/insightcae" ["l"="63.398,-2.657"]
"precise-simulation/featool-multiphysics" ["l"="63.021,-1.461", "c"=175]
"exasim-project/opi" ["l"="63.364,-2.806"]
"unicfdlab/TwoDaysFoamProgrammingCourse" ["l"="63.561,-2.7"]
"vttresearch/gpuFoam" ["l"="63.307,-2.685"]
"loliverhennigh/latnet" ["l"="63.479,-2.534"]
"gerlero/setup-openfoam" ["l"="63.326,-2.83"]
"automeris-io/WebPlotDigitizer" ["l"="-34.255,16.955", "c"=652]
"Saakaarb/Deep-Learning-for-Aerodynamic-Prediction" ["l"="63.467,-2.557"]
"unicfdlab/QGDsolver" ["l"="63.321,-2.79"]
}