digraph G {
"libigl/libigl-tutorial-data" -> "mike323zyf/BCQN"
"libigl/libigl-tutorial-data" -> "dilevin/GAUSS"
"littlemine/BVH-based-Collision-Detection-Scheme" -> "Continuous-Collision-Detection/Tight-Inclusion"
"littlemine/BVH-based-Collision-Detection-Scheme" -> "KemengHuang/GPU_IPC"
"littlemine/BVH-based-Collision-Detection-Scheme" -> "Xingbaji/PNCG_IPC"
"vvasilo/yolov3_pytorch_ros" -> "SamsungLabs/ShellRecontruction"
"zmhhaha/LBM-Cplusplus-A.A.Mohamad" -> "AlohaLBM/LatticeBoltzmannMethod"
"zmhhaha/LBM-Cplusplus-A.A.Mohamad" -> "AlohaLBM/LBMWorkshop"
"zmhhaha/LBM-Cplusplus-A.A.Mohamad" -> "lbm-principles-practice/code"
"zmhhaha/LBM-Cplusplus-A.A.Mohamad" -> "shurikkuzmin/LatticeBoltzmannMethod"
"zmhhaha/LBM-Cplusplus-A.A.Mohamad" -> "rlee32/lbm_matlab"
"zmhhaha/LBM-Cplusplus-A.A.Mohamad" -> "shurikkuzmin/LBMWorkshop"
"zmhhaha/LBM-Cplusplus-A.A.Mohamad" -> "siramirsaman/LBM"
"zmhhaha/LBM-Cplusplus-A.A.Mohamad" -> "PorousMediaSimulation/openLBMPM"
"zmhhaha/LBM-Cplusplus-A.A.Mohamad" -> "sthavishtha/list-lattice-Boltzmann-codes"
"zmhhaha/LBM-Cplusplus-A.A.Mohamad" -> "lanl/MF-LBM"
"ltt1598/Quasi-Newton-Methods-for-Real-time-Simulation-of-Hyperelastic-Materials" -> "penn-graphics-research/DOT"
"ltt1598/Quasi-Newton-Methods-for-Real-time-Simulation-of-Hyperelastic-Materials" -> "theodorekim/HOBAKv1"
"ltt1598/Quasi-Newton-Methods-for-Real-time-Simulation-of-Hyperelastic-Materials" -> "rarietta/Projective-Dynamics"
"ltt1598/Quasi-Newton-Methods-for-Real-time-Simulation-of-Hyperelastic-Materials" -> "Wulonghua/PhyBS"
"ltt1598/Quasi-Newton-Methods-for-Real-time-Simulation-of-Hyperelastic-Materials" -> "mit-gfx/diff_pd_public"
"ltt1598/Quasi-Newton-Methods-for-Real-time-Simulation-of-Hyperelastic-Materials" -> "mattoverby/admm-elastic"
"ltt1598/Quasi-Newton-Methods-for-Real-time-Simulation-of-Hyperelastic-Materials" -> "AnkaChan/Shortest-Path-to-Boundary-for-Self-Intersecting-Meshes"
"ltt1598/Quasi-Newton-Methods-for-Real-time-Simulation-of-Hyperelastic-Materials" -> "Xingbaji/PNCG_IPC"
"ltt1598/Quasi-Newton-Methods-for-Real-time-Simulation-of-Hyperelastic-Materials" -> "sueda/eol-cloth"
"ltt1598/Quasi-Newton-Methods-for-Real-time-Simulation-of-Hyperelastic-Materials" -> "dilevin/Bartels"
"ltt1598/Quasi-Newton-Methods-for-Real-time-Simulation-of-Hyperelastic-Materials" -> "dio-exploded/PainlessMG"
"Xiangyu-Hu/SPHinXsys" -> "DualSPHysics/DualSPHysics"
"Xiangyu-Hu/SPHinXsys" -> "pypr/pysph"
"Xiangyu-Hu/SPHinXsys" -> "GPUSPH/gpusph"
"Xiangyu-Hu/SPHinXsys" -> "InteractiveComputerGraphics/SPlisHSPlasH"
"Xiangyu-Hu/SPHinXsys" -> "erizmr/SPH_Taichi"
"Xiangyu-Hu/SPHinXsys" -> "chaos-polymtl/lethe" ["e"=1]
"Xiangyu-Hu/SPHinXsys" -> "ChongPengGeotech/LOQUAT"
"Xiangyu-Hu/SPHinXsys" -> "martinjrobins/SPH-DEM"
"Xiangyu-Hu/SPHinXsys" -> "IBAMR/IBAMR" ["e"=1]
"Xiangyu-Hu/SPHinXsys" -> "adevaucorbeil/karamelo"
"Xiangyu-Hu/SPHinXsys" -> "EPhysLab-UVigo/VisualSPHysics"
"Xiangyu-Hu/SPHinXsys" -> "AMReX-Codes/amrex" ["e"=1]
"Xiangyu-Hu/SPHinXsys" -> "zoziha/sph"
"Xiangyu-Hu/SPHinXsys" -> "Yihao-Shi/GeoTaichi"
"Xiangyu-Hu/SPHinXsys" -> "GiordanoAgateRSE/SPHERA"
"tunabrain/incremental-fluids" -> "tunabrain/gpu-fluid"
"tunabrain/incremental-fluids" -> "kuiwuchn/GPUMPM"
"tunabrain/incremental-fluids" -> "rlguy/GridFluidSim3D"
"tunabrain/incremental-fluids" -> "nialltl/incremental_mpm"
"tunabrain/incremental-fluids" -> "tunabrain/tungsten" ["e"=1]
"tunabrain/incremental-fluids" -> "austinEng/WebGL-PIC-FLIP-Fluid"
"tunabrain/incremental-fluids" -> "Azmisov/snow"
"tunabrain/incremental-fluids" -> "tunabrain/tantalum" ["e"=1]
"tunabrain/incremental-fluids" -> "Scrawk/GPU-GEMS-3D-Fluid-Simulation" ["e"=1]
"tunabrain/incremental-fluids" -> "InteractiveComputerGraphics/PositionBasedDynamics"
"tunabrain/incremental-fluids" -> "tunabrain/sparse-voxel-octrees" ["e"=1]
"tunabrain/incremental-fluids" -> "doyubkim/fluid-engine-dev" ["e"=1]
"tunabrain/incremental-fluids" -> "geometrian/simple-spectral" ["e"=1]
"tunabrain/incremental-fluids" -> "lighttransport/nanort" ["e"=1]
"tunabrain/incremental-fluids" -> "JAGJ10/PositionBasedFluids"
"SofaDefrost/SoftRobots" -> "SofaDefrost/ModelOrderReduction"
"SofaDefrost/SoftRobots" -> "SofaDefrost/STLIB"
"SofaDefrost/SoftRobots" -> "SofaDefrost/SofaGym"
"SofaDefrost/SoftRobots" -> "LucMarechal/Soft-Robotics-Materials-Database"
"SofaDefrost/SoftRobots" -> "SofaDefrost/Cosserat"
"SofaDefrost/SoftRobots" -> "sofa-framework/SofaPython3"
"SofaDefrost/SoftRobots" -> "sofa-framework/sofa"
"SofaDefrost/SoftRobots" -> "SofaDefrost/sofa"
"mimesis-inria/caribou" -> "mimesis-inria/DeepPhysX"
"cb-geo/mpm" -> "geomechanics/mpm"
"cb-geo/mpm" -> "adevaucorbeil/karamelo"
"cb-geo/mpm" -> "nairnj/nairn-mpm-fea"
"cb-geo/mpm" -> "Anura3D/Anura3D_OpenSource"
"cb-geo/mpm" -> "xzhang66/MPM3D-F90"
"cb-geo/mpm" -> "penn-graphics-research/ziran2019"
"cb-geo/mpm" -> "penn-graphics-research/claymore"
"cb-geo/mpm" -> "kuiwuchn/GPUMPM"
"cb-geo/mpm" -> "Elias-Gu/MPM2D"
"cb-geo/mpm" -> "SudoDEM/SudoDEM" ["e"=1]
"cb-geo/mpm" -> "Yihao-Shi/GeoTaichi"
"cb-geo/mpm" -> "fabricix/MPM-Py"
"cb-geo/mpm" -> "wmcoombs/AMPLE"
"cb-geo/mpm" -> "penn-graphics-research/HOT"
"cb-geo/mpm" -> "vinhphunguyen/MPM-Julia"
"yuanming-hu/taichi_mpm" -> "nialltl/incremental_mpm"
"yuanming-hu/taichi_mpm" -> "taichi-dev/difftaichi"
"yuanming-hu/taichi_mpm" -> "kuiwuchn/GPUMPM"
"yuanming-hu/taichi_mpm" -> "InteractiveComputerGraphics/SPlisHSPlasH"
"yuanming-hu/taichi_mpm" -> "taichi-dev/taichi_elements"
"yuanming-hu/taichi_mpm" -> "cb-geo/mpm"
"yuanming-hu/taichi_mpm" -> "InteractiveComputerGraphics/PositionBasedDynamics"
"yuanming-hu/taichi_mpm" -> "taichi-dev/taichi"
"yuanming-hu/taichi_mpm" -> "penn-graphics-research/ziran2019"
"yuanming-hu/taichi_mpm" -> "doyubkim/fluid-engine-dev" ["e"=1]
"yuanming-hu/taichi_mpm" -> "ipc-sim/IPC"
"yuanming-hu/taichi_mpm" -> "Azmisov/snow"
"yuanming-hu/taichi_mpm" -> "taichi-dev/awesome-taichi"
"yuanming-hu/taichi_mpm" -> "mitsuba-renderer/mitsuba2" ["e"=1]
"yuanming-hu/taichi_mpm" -> "Elias-Gu/MPM2D"
"wmcoombs/AMPLE" -> "ewyser/fMPMM-solver"
"wmcoombs/AMPLE" -> "vinhphunguyen/mpmat"
"wmcoombs/AMPLE" -> "ewyser/ep2-3De"
"InteractiveComputerGraphics/MayaPartioTools" -> "InteractiveComputerGraphics/BlenderPartioTools"
"JohnDTill/ContinuumRobotExamples" -> "SvenLilge/tdcr-modeling"
"JohnDTill/ContinuumRobotExamples" -> "TIMClab-CAMI/Cosserat-Rod-Modeling-of-Tendon-Actuated-Continuum-Robots"
"JohnDTill/ContinuumRobotExamples" -> "ContinuumRoboticsLab/CRVisToolkit"
"JohnDTill/ContinuumRobotExamples" -> "SoRoSim/SoRoSim"
"JohnDTill/ContinuumRobotExamples" -> "YasPHP/Continuum-Robotics"
"JohnDTill/ContinuumRobotExamples" -> "nimasarli/snake_visualization"
"JohnDTill/ContinuumRobotExamples" -> "turhancan97/RL-based-Control-of-a-Soft-Continuum-Robot"
"JohnDTill/ContinuumRobotExamples" -> "turhancan97/2D-and-3D-Constant-Curvature-Kinematics"
"JohnDTill/ContinuumRobotExamples" -> "smhadisadati/TMTDyn"
"JohnDTill/ContinuumRobotExamples" -> "Shaswat2001/continuum_robot_rviz"
"ttnghia/RealTimeFluidRendering" -> "ttnghia/Banana"
"Azmisov/snow" -> "utilForever/SnowSimulation"
"Azmisov/snow" -> "wyegelwel/snow"
"Azmisov/snow" -> "kuiwuchn/GPUMPM"
"Azmisov/snow" -> "davidsminor/mpmsnow"
"Azmisov/snow" -> "WindQAQ/MPM"
"Azmisov/snow" -> "JAGJ10/Snow"
"Azmisov/snow" -> "wdas/partio" ["e"=1]
"Azmisov/snow" -> "kodai100/OpenGL_MPMSnowSimulation2D"
"Azmisov/snow" -> "Elias-Gu/MPM2D"
"Azmisov/snow" -> "raymondyfei/apic2d"
"Azmisov/snow" -> "mattoverby/mpm-optimization"
"Azmisov/snow" -> "YiYiXia/Flame"
"Azmisov/snow" -> "nialltl/incremental_mpm"
"Azmisov/snow" -> "penn-graphics-research/claymore"
"LucMarechal/Soft-Robotics-Materials-Database" -> "SofaDefrost/SoftRobots"
"LucMarechal/Soft-Robotics-Materials-Database" -> "SoRoSim/SoRoSim"
"LucMarechal/Soft-Robotics-Materials-Database" -> "robotsorcerer/screw-theory"
"LucMarechal/Soft-Robotics-Materials-Database" -> "SvenLilge/tdcr-modeling"
"LucMarechal/Soft-Robotics-Materials-Database" -> "GrauleM/somo"
"DualSPHysics/DualSPHysics" -> "Xiangyu-Hu/SPHinXsys"
"DualSPHysics/DualSPHysics" -> "pypr/pysph"
"DualSPHysics/DualSPHysics" -> "DualSPHysics/DesignSPHysics"
"DualSPHysics/DualSPHysics" -> "InteractiveComputerGraphics/SPlisHSPlasH"
"DualSPHysics/DualSPHysics" -> "GPUSPH/gpusph"
"DualSPHysics/DualSPHysics" -> "EPhysLab-UVigo/VisualSPHysics"
"DualSPHysics/DualSPHysics" -> "martinjrobins/SPH-DEM"
"DualSPHysics/DualSPHysics" -> "InteractiveComputerGraphics/SPH-Tutorial"
"DualSPHysics/DualSPHysics" -> "SimFlowCFD/RapidCFD-dev" ["e"=1]
"DualSPHysics/DualSPHysics" -> "REEF3D/REEF3D"
"DualSPHysics/DualSPHysics" -> "UnnamedMoose/BasicOpenFOAMProgrammingTutorials" ["e"=1]
"DualSPHysics/DualSPHysics" -> "erizmr/SPH_Taichi"
"DualSPHysics/DualSPHysics" -> "synthetik-technologies/blastfoam" ["e"=1]
"DualSPHysics/DualSPHysics" -> "zhai-xiao/CPP-Fluid-Particles"
"DualSPHysics/DualSPHysics" -> "AMReX-Codes/amrex" ["e"=1]
"je-santos/MPLBM-UT" -> "lanl/MF-LBM"
"je-santos/MPLBM-UT" -> "je-santos/PoreFlow-Net"
"je-santos/MPLBM-UT" -> "Franjcf/hybridPorousInterFoam" ["e"=1]
"je-santos/MPLBM-UT" -> "PorousMediaSimulation/openLBMPM"
"je-santos/MPLBM-UT" -> "LukasMosser/PorousMediaGan"
"je-santos/MPLBM-UT" -> "Jeff-Hugh/GenPorMed"
"je-santos/MPLBM-UT" -> "OPM/LBPM"
"je-santos/MPLBM-UT" -> "sthavishtha/list-lattice-Boltzmann-codes"
"je-santos/MPLBM-UT" -> "arjunchint/CFD-LBM-Flow-Through-Porous-Media"
"je-santos/MPLBM-UT" -> "sorush-khajepor/listLBM"
"je-santos/MPLBM-UT" -> "ImperialCollegeLondon/porefoam" ["e"=1]
"je-santos/MPLBM-UT" -> "PMEAL/porespy"
"je-santos/MPLBM-UT" -> "zmhhaha/LBM-Cplusplus-A.A.Mohamad"
"nialltl/incremental_mpm" -> "kuiwuchn/GPUMPM"
"nialltl/incremental_mpm" -> "penn-graphics-research/ziran2019"
"nialltl/incremental_mpm" -> "penn-graphics-research/claymore"
"nialltl/incremental_mpm" -> "yuanming-hu/taichi_mpm"
"nialltl/incremental_mpm" -> "Elias-Gu/MPM2D"
"nialltl/incremental_mpm" -> "r03ert0/mls-mpm.js"
"nialltl/incremental_mpm" -> "Azmisov/snow"
"nialltl/incremental_mpm" -> "Ninjajie/Fusion"
"nialltl/incremental_mpm" -> "penn-graphics-research/ziran2020"
"nialltl/incremental_mpm" -> "adevaucorbeil/karamelo"
"nialltl/incremental_mpm" -> "electronicarts/pbmpm"
"nialltl/incremental_mpm" -> "tunabrain/incremental-fluids"
"nialltl/incremental_mpm" -> "Zhijie-YU/MLS_MPM_CPIC"
"nialltl/incremental_mpm" -> "penn-graphics-research/HOT"
"nialltl/incremental_mpm" -> "cb-geo/mpm"
"PMEAL/OpenPNM" -> "PMEAL/porespy"
"PMEAL/OpenPNM" -> "LukasMosser/PorousMediaGan"
"PMEAL/OpenPNM" -> "je-santos/MPLBM-UT"
"PMEAL/OpenPNM" -> "pmgbergen/porepy"
"PMEAL/OpenPNM" -> "ImperialCollegeLondon/pnextract"
"PMEAL/OpenPNM" -> "PMEAL/OpenPNM-Examples"
"PMEAL/OpenPNM" -> "sailfish-team/sailfish"
"PMEAL/OpenPNM" -> "OPM/LBPM"
"PMEAL/OpenPNM" -> "ImperialCollegeLondon/pnflow"
"PMEAL/OpenPNM" -> "mhgolestan/MatlabPNM"
"PMEAL/OpenPNM" -> "ahboujelben/numSCAL-basic"
"PMEAL/OpenPNM" -> "Franjcf/hybridPorousInterFoam" ["e"=1]
"PMEAL/OpenPNM" -> "je-santos/PoreFlow-Net"
"PMEAL/OpenPNM" -> "lanl/MF-LBM"
"PMEAL/OpenPNM" -> "CFDEMproject/LIGGGHTS-PUBLIC" ["e"=1]
"tunabrain/gpu-fluid" -> "tunabrain/incremental-fluids"
"tunabrain/gpu-fluid" -> "983/Fluid-Simulation"
"tunabrain/gpu-fluid" -> "cgurps/2DFluidSimulation"
"tunabrain/gpu-fluid" -> "austinEng/WebGL-PIC-FLIP-Fluid"
"tunabrain/gpu-fluid" -> "tunabrain/tantalum" ["e"=1]
"tunabrain/gpu-fluid" -> "tunabrain/tungsten" ["e"=1]
"tunabrain/gpu-fluid" -> "Fewes/MinimalAtmosphere" ["e"=1]
"kuiwuchn/GPUMPM" -> "penn-graphics-research/claymore"
"kuiwuchn/GPUMPM" -> "penn-graphics-research/ziran2019"
"kuiwuchn/GPUMPM" -> "kuiwuchn/3x3_SVD_CUDA"
"kuiwuchn/GPUMPM" -> "zenustech/zpc"
"kuiwuchn/GPUMPM" -> "ipc-sim/IPC"
"kuiwuchn/GPUMPM" -> "zhai-xiao/CPP-Fluid-Particles"
"kuiwuchn/GPUMPM" -> "wdas/partio" ["e"=1]
"kuiwuchn/GPUMPM" -> "Azmisov/snow"
"kuiwuchn/GPUMPM" -> "penn-graphics-research/ziran2020"
"kuiwuchn/GPUMPM" -> "penn-graphics-research/HOT"
"kuiwuchn/GPUMPM" -> "KemengHuang/GPU_IPC"
"kuiwuchn/GPUMPM" -> "nialltl/incremental_mpm"
"kuiwuchn/GPUMPM" -> "raymondyfei/libwetcloth"
"kuiwuchn/GPUMPM" -> "raymondyfei/apic2d"
"kuiwuchn/GPUMPM" -> "WindQAQ/MPM"
"ramakarl/fluids3" -> "Gfans/ISPH_NVIDIA_CUDA_CONTEST"
"ramakarl/fluids3" -> "finallyjustice/sphfluid"
"ramakarl/fluids3" -> "benma/pysph"
"ramakarl/fluids3" -> "Gfans/UnifiedParticleFrameworkCUDA"
"DualSPHysics/DesignSPHysics" -> "EPhysLab-UVigo/VisualSPHysics"
"DualSPHysics/DesignSPHysics" -> "DualSPHysics/DualSPHysics"
"JUSTIVE/GPU-Cloth-Simulation" -> "nixon-voxell/GPUClothSimulationInUnity"
"JUSTIVE/GPU-Cloth-Simulation" -> "sam007961/FastMassSpring"
"JUSTIVE/GPU-Cloth-Simulation" -> "Ninjajie/Fusion"
"JUSTIVE/GPU-Cloth-Simulation" -> "SeanSoraghan/UnityMassSpringSystem"
"JUSTIVE/GPU-Cloth-Simulation" -> "danielshervheim/unity-cloth-simulation"
"lanl/dfnWorks" -> "AlghalandisComputing/ADFNE"
"lanl/dfnWorks" -> "je-santos/syntheticFractures"
"AbbasHub/Improved_Phase-Field_LBM_2D" -> "AbbasHub/AMR-LBM-OpenMP-2D"
"Jeff-Hugh/GenPorMed" -> "arjunchint/CFD-LBM-Flow-Through-Porous-Media"
"WindQAQ/MPM" -> "Elias-Gu/MPM2D"
"WindQAQ/MPM" -> "kuiwuchn/GPUMPM"
"WindQAQ/MPM" -> "Azmisov/snow"
"WindQAQ/MPM" -> "YiYiXia/Flame"
"OPM/LBPM" -> "AhmedAlratrout/ContactAngle-Curvature-Roughness"
"OPM/LBPM" -> "lanl/MF-LBM"
"naeioi/PBF-CUDA" -> "zhai-xiao/CPP-Fluid-Particles"
"naeioi/PBF-CUDA" -> "k-ye/PbfVs"
"naeioi/PBF-CUDA" -> "ttnghia/RealTimeFluidRendering"
"naeioi/PBF-CUDA" -> "ZeusYang/PositionBasedFluid_CUDA"
"Ninjajie/Fusion" -> "JUSTIVE/GPU-Cloth-Simulation"
"Ninjajie/Fusion" -> "nixon-voxell/GPUClothSimulationInUnity"
"Ninjajie/Fusion" -> "jknightdoeswork/gpu-physics-unity"
"Ninjajie/Fusion" -> "Scrawk/Position-Based-Dynamics"
"Ninjajie/Fusion" -> "Scrawk/PBD-Fluid-in-Unity" ["e"=1]
"Ninjajie/Fusion" -> "keijiro/ComputeMarchingCubes" ["e"=1]
"Ninjajie/Fusion" -> "Scrawk/GPU-GEMS-3D-Fluid-Simulation" ["e"=1]
"Ninjajie/Fusion" -> "Unity-Technologies/MeshApiExamples" ["e"=1]
"Ninjajie/Fusion" -> "nialltl/incremental_mpm"
"Ninjajie/Fusion" -> "EZhex1991/EZSoftBone" ["e"=1]
"Ninjajie/Fusion" -> "Scrawk/Mesh-Voxelization" ["e"=1]
"Elias-Gu/MPM2D" -> "nairnj/nairn-mpm-fea"
"Elias-Gu/MPM2D" -> "adevaucorbeil/karamelo"
"Elias-Gu/MPM2D" -> "WindQAQ/MPM"
"Elias-Gu/MPM2D" -> "vinhphunguyen/mpmat"
"Elias-Gu/MPM2D" -> "geomechanics/mpm"
"Elias-Gu/MPM2D" -> "penn-graphics-research/ziran2019"
"wi-re/openMaelstrom" -> "kaegi/adaptive-sph"
"wi-re/openMaelstrom" -> "JAGJ10/PositionBasedFluids"
"rarietta/Projective-Dynamics" -> "mattoverby/admm-elastic"
"rarietta/Projective-Dynamics" -> "Q-Minh/projective-dynamics"
"rarietta/Projective-Dynamics" -> "ltt1598/Quasi-Newton-Methods-for-Real-time-Simulation-of-Hyperelastic-Materials"
"rarietta/Projective-Dynamics" -> "mattoverby/admm-elastic-sca"
"zhai-xiao/CPP-Fluid-Particles" -> "erizmr/SPH_Taichi"
"zhai-xiao/CPP-Fluid-Particles" -> "kuiwuchn/GPUMPM"
"zhai-xiao/CPP-Fluid-Particles" -> "naeioi/PBF-CUDA"
"zhai-xiao/CPP-Fluid-Particles" -> "wi-re/openMaelstrom"
"zhai-xiao/CPP-Fluid-Particles" -> "penn-graphics-research/ziran2020"
"zhai-xiao/CPP-Fluid-Particles" -> "peridyno/peridyno"
"zhai-xiao/CPP-Fluid-Particles" -> "InteractiveComputerGraphics/SPlisHSPlasH"
"zhai-xiao/CPP-Fluid-Particles" -> "UnrealXinda/SPHLiquid"
"zhai-xiao/CPP-Fluid-Particles" -> "InteractiveComputerGraphics/SPH-Tutorial"
"zhai-xiao/CPP-Fluid-Particles" -> "rarietta/Projective-Dynamics"
"zhai-xiao/CPP-Fluid-Particles" -> "raymondyfei/apic2d"
"zhai-xiao/CPP-Fluid-Particles" -> "ebirenbaum/ParticleSolver"
"zhai-xiao/CPP-Fluid-Particles" -> "ltt1598/Quasi-Newton-Methods-for-Real-time-Simulation-of-Hyperelastic-Materials"
"zhai-xiao/CPP-Fluid-Particles" -> "YuCrazing/Taichi"
"zhai-xiao/CPP-Fluid-Particles" -> "penn-graphics-research/HOT"
"InteractiveComputerGraphics/cuNSearch" -> "InteractiveComputerGraphics/CompactNSearch"
"ericjang/svd3" -> "JAGJ10/Snow"
"ericjang/svd3" -> "kuiwuchn/3x3_SVD_CUDA"
"ericjang/svd3" -> "damian0815/skellington" ["e"=1]
"AbbasHub/AMR-LBM-OpenMP-2D" -> "AbbasHub/Improved_Phase-Field_LBM_2D"
"SofaDefrost/Cosserat" -> "sofa-framework/BeamAdapter"
"SofaDefrost/Cosserat" -> "SofaDefrost/STLIB"
"SofaDefrost/Cosserat" -> "mimesis-inria/caribou"
"SofaDefrost/Cosserat" -> "sofa-framework/SofaPython3"
"SofaDefrost/Cosserat" -> "SofaDefrost/ModelOrderReduction"
"jslee02/awesome-multibody-dynamics-simulation" -> "siggraphcontact/rigidBodyTutorial"
"REEF3D/REEF3D" -> "REEF3D/DIVEMesh"
"lijieumn/argus-distribution" -> "sueda/eol-cloth"
"finallyjustice/sphfluid" -> "saeedmahani/SPH-3D-Fluid-Simulation"
"EPhysLab-UVigo/VisualSPHysics" -> "DualSPHysics/DesignSPHysics"
"EPhysLab-UVigo/VisualSPHysics" -> "DualSPHysics/DualSPHysics"
"EPhysLab-UVigo/VisualSPHysics" -> "GPUSPH/gpusph"
"PorousMediaSimulation/openLBMPM" -> "lanl/MF-LBM"
"PorousMediaSimulation/openLBMPM" -> "arjunchint/CFD-LBM-Flow-Through-Porous-Media"
"PorousMediaSimulation/openLBMPM" -> "sorush-khajepor/listLBM"
"yuki-koyama/elasty" -> "theodorekim/HOBAKv1"
"yuki-koyama/elasty" -> "vitalight/Velvet"
"yuki-koyama/elasty" -> "ipc-sim/IPC"
"yuki-koyama/elasty" -> "InteractiveComputerGraphics/PositionBasedDynamics"
"yuki-koyama/elasty" -> "mit-gfx/diff_pd_public"
"yuki-koyama/elasty" -> "raymondyfei/libwetcloth"
"yuki-koyama/elasty" -> "st-tech/ppf-contact-solver"
"yuki-koyama/elasty" -> "nobuo-nakagawa/xpbd"
"yuki-koyama/elasty" -> "mattoverby/admm-elastic"
"yuki-koyama/elasty" -> "rarietta/Projective-Dynamics"
"yuki-koyama/elasty" -> "ipc-sim/ipc-toolkit"
"yuki-koyama/elasty" -> "dilevin/CSC417-physics-based-animation" ["e"=1]
"yuki-koyama/elasty" -> "mmmovania/opencloth"
"yuki-koyama/elasty" -> "Q-Minh/position-based-dynamics"
"yuki-koyama/elasty" -> "sutongkui/simulator"
"GEOS-DEV/GEOS" -> "pmgbergen/porepy"
"GEOS-DEV/GEOS" -> "equinor/resdata" ["e"=1]
"GEOS-DEV/GEOS" -> "ajacquey/golem"
"GEOS-DEV/GEOS" -> "sintefmath/JutulDarcy.jl" ["e"=1]
"GEOS-DEV/GEOS" -> "yohanesnuwara/carbon-capture-and-storage" ["e"=1]
"lettucecfd/lettuce" -> "CFD-GO/TCLB"
"lettucecfd/lettuce" -> "sthavishtha/list-lattice-Boltzmann-codes"
"lettucecfd/lettuce" -> "pylbm/pylbm"
"lettucecfd/lettuce" -> "sailfish-team/sailfish"
"lettucecfd/lettuce" -> "Autodesk/XLB" ["e"=1]
"lettucecfd/lettuce" -> "tumaer/JAXFLUIDS" ["e"=1]
"lettucecfd/lettuce" -> "yjhp1016/taichi_LBM3D"
"lettucecfd/lettuce" -> "lanl/MF-LBM"
"lettucecfd/lettuce" -> "spectralDNS/spectralDNS" ["e"=1]
"raymondyfei/libwetcloth" -> "raymondyfei/libWetHair"
"raymondyfei/libwetcloth" -> "kuiwuchn/GPUMPM"
"raymondyfei/libwetcloth" -> "ipc-sim/IPC"
"raymondyfei/libwetcloth" -> "yuki-koyama/elasty"
"raymondyfei/libwetcloth" -> "theodorekim/HOBAKv1"
"raymondyfei/libwetcloth" -> "sam007961/FastMassSpring"
"raymondyfei/libwetcloth" -> "penn-graphics-research/ziran2019"
"raymondyfei/libwetcloth" -> "ltt1598/Quasi-Newton-Methods-for-Real-time-Simulation-of-Hyperelastic-Materials"
"raymondyfei/libwetcloth" -> "omegaiota/DiffCloth"
"raymondyfei/libwetcloth" -> "mmmovania/opencloth"
"raymondyfei/libwetcloth" -> "sueda/eol-cloth"
"raymondyfei/libwetcloth" -> "penn-graphics-research/claymore"
"raymondyfei/libwetcloth" -> "raymondyfei/creamystrand"
"raymondyfei/libwetcloth" -> "penn-graphics-research/ziran2020"
"raymondyfei/libwetcloth" -> "mattoverby/admm-elastic"
"sueda/redmax" -> "evouga/collisiondetection"
"sueda/redmax" -> "penn-graphics-research/DOT"
"sueda/redmax" -> "dilevin/Bartels"
"sueda/redmax" -> "theodorekim/HOBAKv1"
"dnicolasespinoza/GeomechanicsJupyter" -> "johnfoster-pge-utexas/PGE334-ResGeomechanics"
"dnicolasespinoza/GeomechanicsJupyter" -> "salsa360/Geomechanics"
"InteractiveComputerGraphics/SPH-Tutorial" -> "InteractiveComputerGraphics/CompactNSearch"
"InteractiveComputerGraphics/SPH-Tutorial" -> "erizmr/SPH_Taichi"
"InteractiveComputerGraphics/SPH-Tutorial" -> "InteractiveComputerGraphics/SPlisHSPlasH"
"InteractiveComputerGraphics/SPH-Tutorial" -> "zhai-xiao/CPP-Fluid-Particles"
"InteractiveComputerGraphics/SPH-Tutorial" -> "Zhijie-YU/Learning_Notes"
"InteractiveComputerGraphics/SPH-Tutorial" -> "Maarten-vd-Sande/smoothed-particle-hydrodynamics"
"InteractiveComputerGraphics/SPH-Tutorial" -> "zoziha/sph"
"fwilliams/numpyeigen" -> "jiangzhongshi/bijective-projection-shell" ["e"=1]
"fwilliams/numpyeigen" -> "alecjacobson/gp-cli"
"ziyinq/Bimocq" -> "kuiwuchn/GPUMPM"
"ziyinq/Bimocq" -> "penn-graphics-research/HOT"
"ziyinq/Bimocq" -> "penn-graphics-research/claymore"
"ziyinq/Bimocq" -> "penn-graphics-research/ziran2019"
"ziyinq/Bimocq" -> "YuCrazing/Taichi"
"ziyinq/Bimocq" -> "zhxx1987/tbb_liquid_amgpcg"
"ziyinq/Bimocq" -> "ipc-sim/IPC"
"ziyinq/Bimocq" -> "penn-graphics-research/DOT"
"ziyinq/Bimocq" -> "raymondyfei/apic2d"
"ziyinq/Bimocq" -> "maksyuki/TaichiGAME"
"ziyinq/Bimocq" -> "takah29/2d-fluid-simulator"
"ziyinq/Bimocq" -> "penn-graphics-research/ziran2020"
"ziyinq/Bimocq" -> "erizmr/SPH_Taichi"
"ziyinq/Bimocq" -> "christopherbatty/Fluid3D"
"ziyinq/Bimocq" -> "YiYiXia/Flame"
"sam007961/FastMassSpring" -> "JUSTIVE/GPU-Cloth-Simulation"
"sam007961/FastMassSpring" -> "alecjacobson/computer-graphics-mass-spring-systems"
"sam007961/FastMassSpring" -> "mmmovania/opencloth"
"sam007961/FastMassSpring" -> "sueda/eol-cloth"
"sam007961/FastMassSpring" -> "lijieumn/argus-distribution"
"sam007961/FastMassSpring" -> "ltt1598/Quasi-Newton-Methods-for-Real-time-Simulation-of-Hyperelastic-Materials"
"sam007961/FastMassSpring" -> "LegendGraphics/FastMassSpring"
"sam007961/FastMassSpring" -> "raymondyfei/libwetcloth"
"sam007961/FastMassSpring" -> "rarietta/Projective-Dynamics"
"sam007961/FastMassSpring" -> "dilevin/CSC417-a4-cloth-simulation"
"sam007961/FastMassSpring" -> "AnkaChan/Shortest-Path-to-Boundary-for-Self-Intersecting-Meshes"
"sam007961/FastMassSpring" -> "vasumahesh1/Flamenco"
"sam007961/FastMassSpring" -> "sutongkui/simulator"
"sam007961/FastMassSpring" -> "ipc-sim/Codim-IPC"
"evouga/libshell" -> "evouga/collisiondetection"
"evouga/libshell" -> "Hakowan/hakowan"
"arjunchint/CFD-LBM-Flow-Through-Porous-Media" -> "jiaxinchi/lbm"
"arjunchint/CFD-LBM-Flow-Through-Porous-Media" -> "atruszkowska/LBM_MATLAB"
"dio-exploded/PainlessMG" -> "theodorekim/HOBAKv1"
"dio-exploded/PainlessMG" -> "mattoverby/admm-elastic"
"dio-exploded/PainlessMG" -> "ltt1598/Quasi-Newton-Methods-for-Real-time-Simulation-of-Hyperelastic-Materials"
"dio-exploded/PainlessMG" -> "penn-graphics-research/DOT"
"dio-exploded/PainlessMG" -> "dilevin/Bartels"
"dio-exploded/PainlessMG" -> "penn-graphics-research/HOT"
"ToruNiina/lbvh" -> "KemengHuang/GPU_IPC"
"ToruNiina/lbvh" -> "AnkaChan/Shortest-Path-to-Boundary-for-Self-Intersecting-Meshes"
"ToruNiina/lbvh" -> "zenustech/zpc"
"ToruNiina/lbvh" -> "spiriMirror/libuipc"
"ToruNiina/lbvh" -> "theodorekim/HOBAKv1"
"ToruNiina/lbvh" -> "rohan-sawhney/zombie"
"ToruNiina/lbvh" -> "MuGdxy/muda"
"ToruNiina/lbvh" -> "ltt1598/Quasi-Newton-Methods-for-Real-time-Simulation-of-Hyperelastic-Materials"
"ToruNiina/lbvh" -> "jerry060599/KittenGpuLBVH"
"ToruNiina/lbvh" -> "Continuous-Collision-Detection/Tight-Inclusion"
"ToruNiina/lbvh" -> "ipc-sim/ipc-toolkit"
"ToruNiina/lbvh" -> "owensgroup/RXMesh"
"ToruNiina/lbvh" -> "phys-sim-book/solid-sim-tutorial-gpu"
"ipc-sim/rigid-ipc" -> "ipc-sim/ipc-toolkit"
"ipc-sim/rigid-ipc" -> "Continuous-Collision-Detection/Tight-Inclusion"
"ipc-sim/rigid-ipc" -> "ipc-sim/IPC"
"thunil/mantaflow" -> "tum-pbs/mantaflow"
"thunil/mantaflow" -> "christopherbatty/VariationalViscosity3D"
"xzhang66/MPM3D-F90" -> "nairnj/nairn-mpm-fea"
"xzhang66/MPM3D-F90" -> "adevaucorbeil/karamelo"
"xzhang66/MPM3D-F90" -> "cb-geo/mpm"
"xzhang66/MPM3D-F90" -> "fabricix/MPM-Py"
"xzhang66/MPM3D-F90" -> "Elias-Gu/MPM2D"
"xzhang66/MPM3D-F90" -> "vinhphunguyen/mpmat"
"xzhang66/MPM3D-F90" -> "Anura3D/Anura3D_OpenSource"
"xzhang66/MPM3D-F90" -> "Yihao-Shi/GeoTaichi"
"xzhang66/MPM3D-F90" -> "xzhang66/STAP90"
"johntfoster/PDpy" -> "mark-hobbs/BB_PD"
"johntfoster/PDpy" -> "chtld/BB_PD"
"PeriDoX/PeriDoX" -> "alan-turing-institute/PeriPy"
"PeriDoX/PeriDoX" -> "johntfoster/PDpy"
"PeriDoX/PeriDoX" -> "peridigm/peridigm"
"PeriDoX/PeriDoX" -> "nonlocalmodels/NLMech"
"aboria/Aboria" -> "martinjrobins/SPH-DEM"
"penn-graphics-research/DOT" -> "ltt1598/Quasi-Newton-Methods-for-Real-time-Simulation-of-Hyperelastic-Materials"
"AhmedAlratrout/ContactAngle-Curvature-Roughness" -> "ImperialCollegeLondon/pnflow"
"xzhang66/MPM3D-UMAT" -> "xzhang66/STAP90"
"sorush-khajepor/listLBM" -> "lanl/MF-LBM"
"sorush-khajepor/listLBM" -> "PorousMediaSimulation/openLBMPM"
"BinWang0213/MRST_Shale" -> "UnconvRS/shale"
"kipfstuhl/porous_lbm" -> "jiaxinchi/lbm"
"grvlbit/THERMAID" -> "UnconvRS/shale"
"nobuo-nakagawa/xpbd" -> "nobuo-nakagawa/strain_based_dynamics"
"nobuo-nakagawa/xpbd" -> "FZzzz/JellySimulation"
"QuocAnh90/MPM2D_basic" -> "QuocAnh90/DOUBLEMPM"
"xzhang66/STAPpp" -> "xzhang66/FEM-Python"
"xzhang66/STAPpp" -> "xzhang66/STAP90"
"alecjacobson/gp-cli" -> "dilevin/Bartels"
"alecjacobson/gp-cli" -> "Hakowan/hakowan"
"sueda/eol-cloth" -> "mattoverby/admm-elastic"
"sueda/eol-cloth" -> "wkindling/Yarn-cloth-sim"
"sueda/eol-cloth" -> "wkindling/Eulerian-on-Lagrangian-Cloth-Sim"
"sueda/eol-cloth" -> "lijieumn/argus-distribution"
"sueda/eol-cloth" -> "dilevin/CSC417-a4-cloth-simulation"
"sueda/eol-cloth" -> "ltt1598/Quasi-Newton-Methods-for-Real-time-Simulation-of-Hyperelastic-Materials"
"ImperialCollegeLondon/pnflow" -> "ImperialCollegeLondon/pnextract"
"ImperialCollegeLondon/pnextract" -> "ImperialCollegeLondon/pnflow"
"ImperialCollegeLondon/pnextract" -> "ahboujelben/numSCAL-basic"
"ImperialCollegeLondon/pnextract" -> "ImperialCollegeLondon/poreFoam-singlePhase"
"ImperialCollegeLondon/pnextract" -> "LukasMosser/PorousMediaGan"
"REEF3D/DIVEMesh" -> "REEF3D/REEF3D"
"cfdemons/LUMA" -> "joconnor22/LIFE"
"nobuo-nakagawa/strain_based_dynamics" -> "FZzzz/JellySimulation"
"chtld/BB_PD" -> "zhaohaiyang01/An-ordinary-state-based-peridynamics-OSBPD-"
"chtld/BB_PD" -> "janelchua/Phase-field-and-Peridynamics"
"PMEAL/porespy-examples" -> "PMEAL/openpnm-api"
"matthias-research/pages" -> "InteractiveComputerGraphics/PositionBasedDynamics"
"matthias-research/pages" -> "yuki-koyama/elasty"
"matthias-research/pages" -> "NVIDIAGameWorks/FleX"
"matthias-research/pages" -> "theodorekim/HOBAKv1"
"matthias-research/pages" -> "AnkaChan/Gaia"
"matthias-research/pages" -> "doyubkim/fluid-engine-dev" ["e"=1]
"matthias-research/pages" -> "dilevin/CSC417-physics-based-animation" ["e"=1]
"matthias-research/pages" -> "ipc-sim/IPC"
"matthias-research/pages" -> "mmmovania/opencloth"
"matthias-research/pages" -> "Yixin-Hu/TetWild" ["e"=1]
"matthias-research/pages" -> "raymondyfei/libwetcloth"
"matthias-research/pages" -> "InteractiveComputerGraphics/SPlisHSPlasH"
"matthias-research/pages" -> "wildmeshing/fTetWild" ["e"=1]
"matthias-research/pages" -> "rlguy/GridFluidSim3D"
"matthias-research/pages" -> "vcg-uvic/viper"
"taichi-dev/difftaichi" -> "yuanming-hu/taichi_mpm"
"taichi-dev/difftaichi" -> "taichi-dev/taichi_elements"
"taichi-dev/difftaichi" -> "taichi-dev/taichi"
"taichi-dev/difftaichi" -> "erwincoumans/tiny-differentiable-simulator" ["e"=1]
"taichi-dev/difftaichi" -> "google/brax" ["e"=1]
"taichi-dev/difftaichi" -> "InteractiveComputerGraphics/SPlisHSPlasH"
"taichi-dev/difftaichi" -> "ipc-sim/IPC"
"taichi-dev/difftaichi" -> "tum-pbs/PhiFlow" ["e"=1]
"taichi-dev/difftaichi" -> "thunil/Physics-Based-Deep-Learning" ["e"=1]
"taichi-dev/difftaichi" -> "NVIDIA/warp" ["e"=1]
"taichi-dev/difftaichi" -> "taichi-dev/awesome-taichi"
"taichi-dev/difftaichi" -> "InteractiveComputerGraphics/PositionBasedDynamics"
"taichi-dev/difftaichi" -> "BachiLi/redner" ["e"=1]
"taichi-dev/difftaichi" -> "mitsuba-renderer/mitsuba2" ["e"=1]
"taichi-dev/difftaichi" -> "yuanming-hu/taichi"
"shurikkuzmin/LBMWorkshop" -> "shurikkuzmin/LatticeBoltzmannMethod"
"shurikkuzmin/LBMWorkshop" -> "AlohaLBM/LatticeBoltzmannMethod"
"shurikkuzmin/LBMWorkshop" -> "siramirsaman/LBM"
"shurikkuzmin/LBMWorkshop" -> "rlee32/lbm_matlab"
"shurikkuzmin/LBMWorkshop" -> "henry2004y/LBMD2Q9"
"sailfish-team/sailfish" -> "CFD-GO/TCLB"
"sailfish-team/sailfish" -> "loliverhennigh/Lattice-Boltzmann-fluid-flow-in-Tensorflow" ["e"=1]
"sailfish-team/sailfish" -> "pylbm/pylbm"
"sailfish-team/sailfish" -> "hietwll/LBM_Taichi"
"sailfish-team/sailfish" -> "lbm-principles-practice/code"
"sailfish-team/sailfish" -> "lettucecfd/lettuce"
"sailfish-team/sailfish" -> "siramirsaman/LBM"
"sailfish-team/sailfish" -> "shurikkuzmin/LatticeBoltzmannMethod"
"sailfish-team/sailfish" -> "AlohaLBM/LBMWorkshop"
"sailfish-team/sailfish" -> "zmhhaha/LBM-Cplusplus-A.A.Mohamad"
"sailfish-team/sailfish" -> "sthavishtha/list-lattice-Boltzmann-codes"
"sailfish-team/sailfish" -> "ecoon/Taxila-LBM"
"sailfish-team/sailfish" -> "lanl/MF-LBM"
"sailfish-team/sailfish" -> "nyxcalamity/lbm-gpu"
"sailfish-team/sailfish" -> "yjhp1016/taichi_LBM3D"
"iheartla/iheartla" -> "seungbaebang/complementary-dynamics-cpp" ["e"=1]
"iheartla/iheartla" -> "dilevin/Bartels"
"iheartla/iheartla" -> "theodorekim/HOBAKv1"
"iheartla/iheartla" -> "sgsellan/fracture-modes" ["e"=1]
"AlohaLBM/LBMWorkshop" -> "AlohaLBM/LatticeBoltzmannMethod"
"AlohaLBM/LBMWorkshop" -> "zmhhaha/LBM-Cplusplus-A.A.Mohamad"
"AlohaLBM/LBMWorkshop" -> "AlohaLBM/The-tutorial-of-the-lattice-Boltzmann-method"
"yuanming-hu/taichi" -> "taichi-dev/difftaichi"
"yuanming-hu/taichi" -> "yuanming-hu/taichi_mpm"
"yuanming-hu/taichi" -> "nialltl/incremental_mpm"
"yuanming-hu/taichi" -> "taichi-dev/taichi_elements"
"yuanming-hu/taichi" -> "taichi-dev/taichi_glsl"
"je-santos/PoreFlow-Net" -> "je-santos/MPLBM-UT"
"pmocz/finitevolume-python" -> "pmocz/finitevolume2-python"
"pmocz/finitevolume-python" -> "pmocz/latticeboltzmann-python"
"pmocz/finitevolume-python" -> "pmocz/constrainedtransport-python"
"pmocz/finitevolume-python" -> "pmocz/navier-stokes-spectral-python"
"pmocz/finitevolume-python" -> "saadtony/uCFD"
"williamljb/DifferentiableCloth" -> "mit-gfx/diff_pd_public"
"sofa-framework/SofaPython3" -> "SofaDefrost/STLIB"
"sofa-framework/SofaPython3" -> "mimesis-inria/DeepPhysX"
"adevaucorbeil/karamelo" -> "nairnj/nairn-mpm-fea"
"adevaucorbeil/karamelo" -> "vinhphunguyen/mpmat"
"adevaucorbeil/karamelo" -> "vinhphunguyen/MPM-Julia"
"adevaucorbeil/karamelo" -> "geomechanics/mpm"
"adevaucorbeil/karamelo" -> "Elias-Gu/MPM2D"
"InteractiveComputerGraphics/BlenderPartioTools" -> "InteractiveComputerGraphics/MayaPartioTools"
"BJCaasenbrood/SorotokiCode" -> "chukhanhhoang/SoftRoboticSetupFesto"
"BJCaasenbrood/SorotokiCode" -> "BJCaasenbrood/soft-robot-model-MATLAB"
"OpenSourceMedicalRobots/Endo-Continuum-Robot" -> "OpenSourceMedicalRobots/Endo-Continuum-Robot-Library"
"InteractiveComputerGraphics/splashsurf" -> "InteractiveComputerGraphics/blender-sequence-loader"
"InteractiveComputerGraphics/splashsurf" -> "InteractiveComputerGraphics/stark"
"InteractiveComputerGraphics/splashsurf" -> "erizmr/SPH_Taichi"
"InteractiveComputerGraphics/splashsurf" -> "jason-huang03/SPH_Project"
"InteractiveComputerGraphics/splashsurf" -> "InteractiveComputerGraphics/TreeNSearch"
"InteractiveComputerGraphics/splashsurf" -> "InteractiveComputerGraphics/CompactNSearch"
"InteractiveComputerGraphics/splashsurf" -> "InteractiveComputerGraphics/SPlisHSPlasH"
"JAGJ10/PositionBasedFluids" -> "wi-re/openMaelstrom"
"JAGJ10/PositionBasedFluids" -> "ttnghia/RealTimeFluidRendering"
"ecoon/Taxila-LBM" -> "UCL/LatBo.jl"
"ramvasudevan/soft-robot-koopman" -> "StanfordASL/soft-robot-control"
"vcg-uvic/viper" -> "lsw9021/MASS" ["e"=1]
"vcg-uvic/viper" -> "yuki-koyama/elasty"
"vcg-uvic/viper" -> "theodorekim/HOBAKv1"
"vcg-uvic/viper" -> "InteractiveComputerGraphics/PositionBasedDynamics"
"vcg-uvic/viper" -> "ipc-sim/IPC"
"vcg-uvic/viper" -> "AnkaChan/Gaia"
"vcg-uvic/viper" -> "raymondyfei/libwetcloth"
"vcg-uvic/viper" -> "electronicarts/dem-bones" ["e"=1]
"vcg-uvic/viper" -> "penn-graphics-research/ziran2020"
"vcg-uvic/viper" -> "GPUOpen-Effects/FEMFX"
"vcg-uvic/viper" -> "TomohikoMukai/ssdr" ["e"=1]
"vcg-uvic/viper" -> "matthias-research/pages"
"vcg-uvic/viper" -> "dilevin/CSC417-physics-based-animation" ["e"=1]
"vcg-uvic/viper" -> "Yixin-Hu/TetWild" ["e"=1]
"vcg-uvic/viper" -> "ltt1598/Quasi-Newton-Methods-for-Real-time-Simulation-of-Hyperelastic-Materials"
"GPUOpen-Effects/FEMFX" -> "GPUOpen-Effects/TressFX" ["e"=1]
"GPUOpen-Effects/FEMFX" -> "kuiwuchn/GPUMPM"
"GPUOpen-Effects/FEMFX" -> "InteractiveComputerGraphics/PositionBasedDynamics"
"GPUOpen-Effects/FEMFX" -> "NVIDIAGameWorks/Blast"
"GPUOpen-Effects/FEMFX" -> "yuki-koyama/elasty"
"GPUOpen-Effects/FEMFX" -> "mmacklin/tinsel" ["e"=1]
"GPUOpen-Effects/FEMFX" -> "erleben/OpenTissue"
"GPUOpen-Effects/FEMFX" -> "GPUOpen-Effects/FidelityFX" ["e"=1]
"GPUOpen-Effects/FEMFX" -> "NVIDIAGameWorks/NvCloth"
"GPUOpen-Effects/FEMFX" -> "nfrechette/acl" ["e"=1]
"GPUOpen-Effects/FEMFX" -> "theodorekim/HOBAKv1"
"GPUOpen-Effects/FEMFX" -> "NVIDIAGameWorks/FleX"
"FZzzz/JellySimulation" -> "FZzzz/FluidSimulation"
"tum-pbs/mantaflow" -> "thunil/mantaflow"
"GPUSPH/gpusph" -> "DualSPHysics/DualSPHysics"
"GPUSPH/gpusph" -> "EPhysLab-UVigo/VisualSPHysics"
"GPUSPH/gpusph" -> "pypr/pysph"
"GPUSPH/gpusph" -> "Xiangyu-Hu/SPHinXsys"
"GPUSPH/gpusph" -> "GiordanoAgateRSE/SPHERA"
"GPUSPH/gpusph" -> "wi-re/openMaelstrom"
"GPUSPH/gpusph" -> "martinjrobins/SPH-DEM"
"GPUSPH/gpusph" -> "ramakarl/fluids3"
"Gfans/ISPH_NVIDIA_CUDA_CONTEST" -> "ramakarl/fluids3"
"Gfans/ISPH_NVIDIA_CUDA_CONTEST" -> "Gfans/UnifiedParticleFrameworkCUDA"
"sthavishtha/list-lattice-Boltzmann-codes" -> "shurikkuzmin/LatticeBoltzmannMethod"
"sthavishtha/list-lattice-Boltzmann-codes" -> "lanl/MF-LBM"
"sthavishtha/list-lattice-Boltzmann-codes" -> "lbm-principles-practice/code"
"sthavishtha/list-lattice-Boltzmann-codes" -> "CFD-GO/TCLB"
"sthavishtha/list-lattice-Boltzmann-codes" -> "zmhhaha/LBM-Cplusplus-A.A.Mohamad"
"sthavishtha/list-lattice-Boltzmann-codes" -> "joconnor22/LIFE"
"sthavishtha/list-lattice-Boltzmann-codes" -> "2b-t/LB-t"
"sthavishtha/list-lattice-Boltzmann-codes" -> "pylbm/pylbm"
"sthavishtha/list-lattice-Boltzmann-codes" -> "AbbasHub/AMR-LBM-OpenMP-2D"
"sthavishtha/list-lattice-Boltzmann-codes" -> "je-santos/MPLBM-UT"
"sthavishtha/list-lattice-Boltzmann-codes" -> "hietwll/LBM_Taichi"
"sthavishtha/list-lattice-Boltzmann-codes" -> "lettucecfd/lettuce"
"sthavishtha/list-lattice-Boltzmann-codes" -> "ecalzavarini/ch4-project"
"sthavishtha/list-lattice-Boltzmann-codes" -> "mehdiataei/LBfoam"
"sthavishtha/list-lattice-Boltzmann-codes" -> "sthavishtha/turbulence-codes" ["e"=1]
"victoriacity/taichimd" -> "g1n0st/GAMES201"
"penn-graphics-research/ziran2019" -> "penn-graphics-research/ziran2020"
"penn-graphics-research/ziran2019" -> "penn-graphics-research/claymore"
"penn-graphics-research/ziran2019" -> "kuiwuchn/GPUMPM"
"penn-graphics-research/ziran2019" -> "zenustech/zpc"
"penn-graphics-research/ziran2019" -> "penn-graphics-research/HOT"
"penn-graphics-research/ziran2019" -> "Elias-Gu/MPM2D"
"penn-graphics-research/ziran2019" -> "penn-graphics-research/DOT"
"penn-graphics-research/ziran2019" -> "phys-sim-book/solid-sim-tutorial"
"penn-graphics-research/ziran2019" -> "ipc-sim/IPC"
"penn-graphics-research/ziran2019" -> "raymondyfei/apic2d"
"penn-graphics-research/ziran2019" -> "vinhphunguyen/mpmat"
"penn-graphics-research/ziran2019" -> "adevaucorbeil/karamelo"
"penn-graphics-research/ziran2019" -> "KemengHuang/GPU_IPC"
"penn-graphics-research/ziran2019" -> "nialltl/incremental_mpm"
"penn-graphics-research/ziran2019" -> "ipc-sim/Codim-IPC"
"GraphicsReplicability/replicability.graphics" -> "sueda/eol-cloth"
"GraphicsReplicability/replicability.graphics" -> "adobe/sbmc" ["e"=1]
"GraphicsReplicability/replicability.graphics" -> "uci-rendering/psdr-cuda" ["e"=1]
"ArashRabbani/DeePore" -> "ArashRabbani/Porous_Material_101"
"ipc-sim/IPC" -> "ipc-sim/ipc-toolkit"
"ipc-sim/IPC" -> "ipc-sim/Codim-IPC"
"ipc-sim/IPC" -> "theodorekim/HOBAKv1"
"ipc-sim/IPC" -> "polyfem/polyfem" ["e"=1]
"ipc-sim/IPC" -> "Continuous-Collision-Detection/Tight-Inclusion"
"ipc-sim/IPC" -> "KemengHuang/GPU_IPC"
"ipc-sim/IPC" -> "omegaiota/DiffCloth"
"ipc-sim/IPC" -> "phys-sim-book/solid-sim-tutorial"
"ipc-sim/IPC" -> "kuiwuchn/GPUMPM"
"ipc-sim/IPC" -> "Yixin-Hu/TetWild" ["e"=1]
"ipc-sim/IPC" -> "spiriMirror/libuipc"
"ipc-sim/IPC" -> "ipc-sim/rigid-ipc"
"ipc-sim/IPC" -> "yuki-koyama/elasty"
"ipc-sim/IPC" -> "InteractiveComputerGraphics/PositionBasedDynamics"
"ipc-sim/IPC" -> "raymondyfei/libwetcloth"
"raymondyfei/creamystrand" -> "millag/DiscreteElasticRods"
"raymondyfei/creamystrand" -> "penn-graphics-research/DOT"
"nixon-voxell/GPUClothSimulationInUnity" -> "JUSTIVE/GPU-Cloth-Simulation"
"nixon-voxell/GPUClothSimulationInUnity" -> "Ninjajie/Fusion"
"nixon-voxell/GPUClothSimulationInUnity" -> "Scrawk/Position-Based-Dynamics"
"ipc-sim/ipc-toolkit" -> "ipc-sim/IPC"
"ipc-sim/ipc-toolkit" -> "KemengHuang/GPU_IPC"
"ipc-sim/ipc-toolkit" -> "phys-sim-book/solid-sim-tutorial"
"ipc-sim/ipc-toolkit" -> "theodorekim/HOBAKv1"
"ipc-sim/ipc-toolkit" -> "spiriMirror/libuipc"
"ipc-sim/ipc-toolkit" -> "polyfem/polyfem" ["e"=1]
"ipc-sim/ipc-toolkit" -> "ipc-sim/Codim-IPC"
"ipc-sim/ipc-toolkit" -> "Continuous-Collision-Detection/Tight-Inclusion"
"ipc-sim/ipc-toolkit" -> "ipc-sim/rigid-ipc"
"ipc-sim/ipc-toolkit" -> "phys-sim-book/solid-sim-tutorial-gpu"
"ipc-sim/ipc-toolkit" -> "Huangzizhou/DiffIPC-data"
"ipc-sim/ipc-toolkit" -> "AnkaChan/Shortest-Path-to-Boundary-for-Self-Intersecting-Meshes"
"ipc-sim/ipc-toolkit" -> "st-tech/ppf-contact-solver"
"ipc-sim/ipc-toolkit" -> "mit-gfx/diff_pd_public"
"ipc-sim/ipc-toolkit" -> "honglin-c/abs-psd"
"jviquerat/lbm" -> "pmocz/latticeboltzmann-python"
"jviquerat/lbm" -> "pylbm/pylbm"
"jviquerat/lbm" -> "yjhp1016/taichi_LBM3D"
"jviquerat/lbm" -> "sthavishtha/list-lattice-Boltzmann-codes"
"jviquerat/lbm" -> "lbm-principles-practice/code"
"jviquerat/lbm" -> "PorousMediaSimulation/openLBMPM"
"jviquerat/lbm" -> "lanl/MF-LBM"
"jviquerat/lbm" -> "lettucecfd/lettuce"
"jviquerat/lbm" -> "rlee32/lbm_matlab"
"jviquerat/lbm" -> "shurikkuzmin/LatticeBoltzmannMethod"
"jviquerat/lbm" -> "hietwll/LBM_Taichi"
"jviquerat/lbm" -> "siramirsaman/LBM"
"GazzolaLab/PyElastica" -> "GazzolaLab/Elastica-RL-control"
"GazzolaLab/PyElastica" -> "SoRoSim/SoRoSim"
"GazzolaLab/PyElastica" -> "skim0119/gym-softrobot"
"GazzolaLab/PyElastica" -> "SofaDefrost/Cosserat"
"GazzolaLab/PyElastica" -> "JohnDTill/ContinuumRobotExamples"
"GazzolaLab/PyElastica" -> "armantekinalp/MagnetoPyElastica"
"GazzolaLab/PyElastica" -> "StructuresComp/dismech-rods"
"GazzolaLab/PyElastica" -> "millag/DiscreteElasticRods"
"GazzolaLab/PyElastica" -> "mattialab/elastica"
"GazzolaLab/PyElastica" -> "LucMarechal/Soft-Robotics-Materials-Database"
"GazzolaLab/PyElastica" -> "BJCaasenbrood/SorotokiCode"
"GazzolaLab/PyElastica" -> "elhussieny/continuum_robot"
"GazzolaLab/PyElastica" -> "GrauleM/somo"
"GazzolaLab/PyElastica" -> "SofaDefrost/SofaGym"
"taichi-dev/taichi_elements" -> "taichi-dev/taichi_three"
"taichi-dev/taichi_elements" -> "erizmr/SPH_Taichi"
"taichi-dev/taichi_elements" -> "kuiwuchn/GPUMPM"
"taichi-dev/taichi_elements" -> "penn-graphics-research/claymore"
"taichi-dev/taichi_elements" -> "penn-graphics-research/ziran2020"
"taichi-dev/taichi_elements" -> "taichi-dev/awesome-taichi"
"taichi-dev/taichi_elements" -> "raymondyfei/pyasflip"
"taichi-dev/taichi_elements" -> "Zhijie-YU/MLS_MPM_CPIC"
"taichi-dev/taichi_elements" -> "ipc-sim/IPC"
"taichi-dev/taichi_elements" -> "penn-graphics-research/ziran2019"
"taichi-dev/taichi_elements" -> "taichi-dev/taichi_blend"
"taichi-dev/taichi_elements" -> "yuanming-hu/taichi_mpm"
"taichi-dev/taichi_elements" -> "taichi-dev/meshtaichi"
"taichi-dev/taichi_elements" -> "taichi-dev/taichi_houdini"
"taichi-dev/taichi_elements" -> "taichi-dev/games201"
"g1n0st/GAMES201" -> "Robslhc/WaterSim"
"g1n0st/GAMES201" -> "lilinxi/Games201HW"
"g1n0st/GAMES201" -> "ShaneFX/GAMES201"
"taichi-dev/games201" -> "zhai-xiao/CPP-Fluid-Particles"
"taichi-dev/games201" -> "taichi-dev/taichi_elements"
"taichi-dev/games201" -> "dilevin/CSC417-physics-based-animation" ["e"=1]
"taichi-dev/games201" -> "hietwll/LBM_Taichi"
"taichi-dev/games201" -> "taichi-dev/taichicon"
"taichi-dev/games201" -> "InteractiveComputerGraphics/SPH-Tutorial"
"taichi-dev/games201" -> "theodorekim/HOBAKv1"
"taichi-dev/games201" -> "ipc-sim/IPC"
"taichi-dev/games201" -> "kuiwuchn/GPUMPM"
"taichi-dev/games201" -> "YuCrazing/Taichi"
"taichi-dev/games201" -> "penn-graphics-research/ziran2020"
"taichi-dev/games201" -> "g1n0st/GAMES201"
"taichi-dev/games201" -> "InteractiveComputerGraphics/SPlisHSPlasH"
"taichi-dev/games201" -> "taichiCourse01/taichiCourse01" ["e"=1]
"taichi-dev/games201" -> "erizmr/SPH_Taichi"
"seiing/SoftCon" -> "dio-exploded/PainlessMG"
"AlohaLBM/LatticeBoltzmannMethod" -> "AlohaLBM/LBMWorkshop"
"AlohaLBM/LatticeBoltzmannMethod" -> "zmhhaha/LBM-Cplusplus-A.A.Mohamad"
"hietwll/LBM_Taichi" -> "yjhp1016/taichi_LBM3D"
"hietwll/LBM_Taichi" -> "sailfish-team/sailfish"
"hietwll/LBM_Taichi" -> "hejob/taichi-fvm2d-fluid-ns"
"hietwll/LBM_Taichi" -> "sthavishtha/list-lattice-Boltzmann-codes"
"hietwll/LBM_Taichi" -> "cb-geo/2d-lbm-dem"
"hietwll/LBM_Taichi" -> "YuCrazing/Taichi"
"hietwll/LBM_Taichi" -> "erizmr/SPH_Taichi"
"hietwll/LBM_Taichi" -> "taichi-dev/taichi_three"
"hietwll/LBM_Taichi" -> "siramirsaman/LBM"
"hietwll/LBM_Taichi" -> "houkensjtu/taichi-fluid"
"hietwll/LBM_Taichi" -> "lbm-principles-practice/code"
"hietwll/LBM_Taichi" -> "Zhijie-YU/MLS_MPM_CPIC"
"penn-graphics-research/ziran2020" -> "penn-graphics-research/ziran2019"
"penn-graphics-research/ziran2020" -> "penn-graphics-research/claymore"
"penn-graphics-research/ziran2020" -> "KemengHuang/GPU_IPC"
"penn-graphics-research/ziran2020" -> "AnkaChan/Shortest-Path-to-Boundary-for-Self-Intersecting-Meshes"
"penn-graphics-research/ziran2020" -> "kuiwuchn/GPUMPM"
"penn-graphics-research/ziran2020" -> "theodorekim/HOBAKv1"
"penn-graphics-research/ziran2020" -> "zenustech/zpc"
"penn-graphics-research/ziran2020" -> "Xingbaji/PNCG_IPC"
"penn-graphics-research/ziran2020" -> "penn-graphics-research/HOT"
"penn-graphics-research/ziran2020" -> "phys-sim-book/solid-sim-tutorial"
"penn-graphics-research/ziran2020" -> "ipc-sim/IPC"
"penn-graphics-research/ziran2020" -> "zhai-xiao/CPP-Fluid-Particles"
"penn-graphics-research/ziran2020" -> "raymondyfei/apic2d"
"penn-graphics-research/ziran2020" -> "st-tech/ppf-contact-solver"
"penn-graphics-research/ziran2020" -> "ipc-sim/Codim-IPC"
"penn-graphics-research/claymore" -> "kuiwuchn/GPUMPM"
"penn-graphics-research/claymore" -> "penn-graphics-research/ziran2019"
"penn-graphics-research/claymore" -> "penn-graphics-research/HOT"
"penn-graphics-research/claymore" -> "penn-graphics-research/ziran2020"
"penn-graphics-research/claymore" -> "penn-graphics-research/DOT"
"penn-graphics-research/claymore" -> "g1n0st/GAMES201"
"penn-graphics-research/claymore" -> "ShaneFX/GAMES201"
"penn-graphics-research/claymore" -> "Jack12xl/a-toy-fluid-engine"
"penn-graphics-research/claymore" -> "Zhijie-YU/MLS_MPM_CPIC"
"penn-graphics-research/claymore" -> "nialltl/incremental_mpm"
"penn-graphics-research/claymore" -> "squarefk/FastIPC"
"penn-graphics-research/claymore" -> "taichi-dev/taichi_elements"
"penn-graphics-research/claymore" -> "ipc-sim/IPC"
"penn-graphics-research/claymore" -> "raymondyfei/creamystrand"
"penn-graphics-research/claymore" -> "ltt1598/Quasi-Newton-Methods-for-Real-time-Simulation-of-Hyperelastic-Materials"
"erizmr/SPH_Taichi" -> "zhai-xiao/CPP-Fluid-Particles"
"erizmr/SPH_Taichi" -> "Yihao-Shi/GeoTaichi"
"erizmr/SPH_Taichi" -> "lyd405121/wcsph"
"erizmr/SPH_Taichi" -> "taichi-dev/meshtaichi"
"erizmr/SPH_Taichi" -> "g1n0st/GAMES201"
"erizmr/SPH_Taichi" -> "taichi-dev/taichi_elements"
"erizmr/SPH_Taichi" -> "houkensjtu/taichi-fluid"
"erizmr/SPH_Taichi" -> "taichi-dev/awesome-taichi"
"erizmr/SPH_Taichi" -> "ShaneFX/GAMES201"
"erizmr/SPH_Taichi" -> "InteractiveComputerGraphics/SPlisHSPlasH"
"erizmr/SPH_Taichi" -> "jason-huang03/SPH_Project"
"erizmr/SPH_Taichi" -> "Zhijie-YU/MLS_MPM_CPIC"
"erizmr/SPH_Taichi" -> "YuCrazing/Taichi"
"erizmr/SPH_Taichi" -> "InteractiveComputerGraphics/SPH-Tutorial"
"erizmr/SPH_Taichi" -> "yjhp1016/taichi_LBM3D"
"MeshFEM/MeshFEM" -> "mike323zyf/BCQN"
"millag/DiscreteElasticRods" -> "jpanetta/ElasticRods"
"millag/DiscreteElasticRods" -> "swyngaard/imicu"
"rlguy/SPHFluidSim" -> "rosamu/SPH"
"rlguy/SPHFluidSim" -> "martinjrobins/SPH-DEM"
"AlohaLBM/The-tutorial-of-the-lattice-Boltzmann-method" -> "AlohaLBM/LBMWorkshop"
"mark-hobbs/BB_PD" -> "chtld/BB_PD"
"mark-hobbs/BB_PD" -> "lazyzq/MatlabPeridynamicsCode"
"mark-hobbs/BB_PD" -> "zhaohaiyang01/An-ordinary-state-based-peridynamics-OSBPD-"
"groundflyer/physhader-for-mantra" -> "teared/meshlab-in-houdini"
"groundflyer/physhader-for-mantra" -> "fabric-engine/SpliceHoudini"
"groundflyer/physhader-for-mantra" -> "elrnv/stokes-houdini"
"UnrealXinda/SPHLiquid" -> "UnrealXinda/CPP-Fluid-Particles"
"taichi-dev/taichi_three" -> "taichi-dev/taichi_glsl"
"taichi-dev/taichi_three" -> "lyd405121/ti-raytrace"
"taichi-dev/taichi_three" -> "taichi-dev/taichi_blend"
"taichi-dev/taichi_three" -> "taichi-dev/taichi_elements"
"taichi-dev/taichi_three" -> "lyd405121/OpenClothPy"
"taichi-dev/taichi_three" -> "YuCrazing/Taichi"
"taichi-dev/taichi_three" -> "taichi-dev/meshtaichi"
"taichi-dev/taichi_three" -> "theAfish/BlackHoleRayMarching"
"taichi-dev/taichi_three" -> "ShaneFX/GAMES201"
"taichi-dev/taichi_three" -> "hietwll/LBM_Taichi"
"dilevin/CSC417-a4-cloth-simulation" -> "dilevin/CSC417-a3-finite-elements-3d"
"dilevin/CSC417-a4-cloth-simulation" -> "dilevin/CSC417-a1-mass-spring-1d"
"dilevin/CSC417-a4-cloth-simulation" -> "dilevin/CSC417-a2-mass-spring-3d"
"dilevin/CSC417-a4-cloth-simulation" -> "sueda/eol-cloth"
"dilevin/CSC417-a4-cloth-simulation" -> "dilevin/CSC417-a5-rigid-bodies"
"pmocz/nbody-python" -> "pmocz/sph-python"
"YuCrazing/Taichi" -> "ShaneFX/GAMES201"
"YuCrazing/Taichi" -> "g1n0st/GAMES201"
"YuCrazing/Taichi" -> "zhehaoli1999/taichi-TopOpt"
"YuCrazing/Taichi" -> "lyd405121/OpenClothPy"
"YuCrazing/Taichi" -> "penn-graphics-research/HOT"
"YuCrazing/Taichi" -> "Robslhc/WaterSim"
"YuCrazing/Taichi" -> "Wimacs/taichi_code"
"martinjrobins/SPH-DEM" -> "aboria/Aboria"
"martinjrobins/SPH-DEM" -> "rosamu/SPH"
"martinjrobins/SPH-DEM" -> "prashjha/PeriDEM"
"martinjrobins/SPH-DEM" -> "ganyx/CapDEM"
"taichi-dev/taichi_blend" -> "taichi-dev/taichi_three"
"OpenSourceMedicalRobots/Endo-Continuum-Robot-Library" -> "OpenSourceMedicalRobots/Endo-Continuum-Robot"
"taichi-dev/taichi-docs-zh-cn" -> "taichi-dev/taichicon"
"taichi-dev/taichi-docs-zh-cn" -> "taichi-dev/docs.taichi.graphics"
"hejob/taichi-fvm2d-fluid-ns" -> "houkensjtu/karman_taichi"
"hejob/taichi-fvm2d-fluid-ns" -> "JYLeeLYJ/Taichi_Animation_Demos"
"Continuous-Collision-Detection/Tight-Inclusion" -> "Continuous-Collision-Detection/CCD-Wrapper"
"Continuous-Collision-Detection/Tight-Inclusion" -> "Continuous-Collision-Detection/Exact-Root-Parity-CCD"
"Continuous-Collision-Detection/Tight-Inclusion" -> "littlemine/BVH-based-Collision-Detection-Scheme"
"Continuous-Collision-Detection/Tight-Inclusion" -> "AnkaChan/Shortest-Path-to-Boundary-for-Self-Intersecting-Meshes"
"Continuous-Collision-Detection/Tight-Inclusion" -> "ipc-sim/ipc-toolkit"
"Continuous-Collision-Detection/Tight-Inclusion" -> "ipc-sim/rigid-ipc"
"Continuous-Collision-Detection/Tight-Inclusion" -> "ipc-sim/IPC"
"Continuous-Collision-Detection/Tight-Inclusion" -> "theodorekim/HOBAKv1"
"Continuous-Collision-Detection/Tight-Inclusion" -> "ipc-sim/Codim-IPC"
"Continuous-Collision-Detection/Tight-Inclusion" -> "evouga/collisiondetection"
"Continuous-Collision-Detection/Tight-Inclusion" -> "KemengHuang/GPU_IPC"
"Continuous-Collision-Detection/Tight-Inclusion" -> "dilevin/Bartels"
"Continuous-Collision-Detection/Tight-Inclusion" -> "Xingbaji/PNCG_IPC"
"vvasilo/semnav" -> "SamsungLabs/ShellRecontruction"
"vvasilo/semnav" -> "real-stanford/fit2form"
"taichi-dev/taichicon" -> "yhesper/TaichiSimplicialFluid"
"taichi-dev/taichicon" -> "theAfish/BlackHoleRayMarching"
"taichi-dev/taichicon" -> "maksyuki/TaichiGAME"
"Continuous-Collision-Detection/CCD-Wrapper" -> "Continuous-Collision-Detection/Tight-Inclusion"
"alan-turing-institute/PeriPy" -> "mark-hobbs/BB_PD"
"alan-turing-institute/PeriPy" -> "ravinderbhattoo/PeriDyn"
"dilevin/CSC417-a3-finite-elements-3d" -> "dilevin/CSC417-a4-cloth-simulation"
"dilevin/CSC417-a3-finite-elements-3d" -> "dilevin/CSC417-a5-rigid-bodies"
"dilevin/CSC417-a3-finite-elements-3d" -> "dilevin/CSC417-a1-mass-spring-1d"
"dilevin/CSC417-a3-finite-elements-3d" -> "dilevin/CSC417-a2-mass-spring-3d"
"dilevin/CSC417-a3-finite-elements-3d" -> "dilevin/Bartels"
"penn-graphics-research/HOT" -> "houkensjtu/karman_taichi"
"ewyser/fMPMM-solver" -> "ewyser/ep2-3De"
"ewyser/fMPMM-solver" -> "QuocAnh90/MPM2D_basic"
"Jack12xl/a-toy-fluid-engine" -> "ShaneFX/GAMES201"
"lyd405121/OpenClothPy" -> "GZhonghui/tiCloth"
"lyd405121/OpenClothPy" -> "taichi-dev/cloth-simulation-homework"
"HauDang/Numerical-modeling-of-wing-crack-propagation-accounting-for-fracture-contact-mechanics" -> "HauDang/Multiscale-simulation-of-injection-induced-fracture-shear-deformation-and-wing-crack-propagation-in-"
"ZeusYang/FluidEngine" -> "ZeusYang/PositionBasedFluid_CUDA"
"dilevin/Bartels" -> "tytrusty/mfem"
"dilevin/Bartels" -> "alecjacobson/gp-cli"
"dilevin/Bartels" -> "dilevin/GAUSS"
"zhehaoli1999/Qtaichi" -> "zhehaoli1999/taichi-TopOpt"
"JYLeeLYJ/Fluid-Engine-Dev-on-Taichi" -> "JYLeeLYJ/Taichi_Animation_Demos"
"johnfoster-pge-utexas/PGE334-ResGeomechanics" -> "johnfoster-pge-utexas/PGE383-AdvGeomechanics"
"JYLeeLYJ/Taichi_Animation_Demos" -> "JYLeeLYJ/Fluid-Engine-Dev-on-Taichi"
"johnfoster-pge-utexas/PGE383-AdvGeomechanics" -> "johnfoster-pge-utexas/PGE334-ResGeomechanics"
"HarrisKomn/Haptics-Medical-Simulation" -> "ChiaraSapo/Open-Source-Visuo-Haptic-Simulator-for-Surgical-Training"
"QuocAnh90/DOUBLEMPM" -> "QuocAnh90/MPM2D_basic"
"dilevin/CSC417-a1-mass-spring-1d" -> "dilevin/CSC417-a2-mass-spring-3d"
"dilevin/CSC417-a1-mass-spring-1d" -> "dilevin/CSC417-a5-rigid-bodies"
"dilevin/CSC417-a2-mass-spring-3d" -> "dilevin/CSC417-a5-rigid-bodies"
"dilevin/CSC417-a2-mass-spring-3d" -> "dilevin/CSC417-a1-mass-spring-1d"
"dilevin/CSC417-a5-rigid-bodies" -> "dilevin/CSC417-a2-mass-spring-3d"
"khazali/Osiris" -> "khazali/Starfish"
"FZzzz/FluidSimulation" -> "FZzzz/JellySimulation"
"wlgys8/GPUClothSimulationLearn" -> "wlgys8/XPBDUnityRust"
"InteractiveComputerGraphics/PositionBasedDynamics" -> "InteractiveComputerGraphics/SPlisHSPlasH"
"InteractiveComputerGraphics/PositionBasedDynamics" -> "doyubkim/fluid-engine-dev" ["e"=1]
"InteractiveComputerGraphics/PositionBasedDynamics" -> "yuki-koyama/elasty"
"InteractiveComputerGraphics/PositionBasedDynamics" -> "ipc-sim/IPC"
"InteractiveComputerGraphics/PositionBasedDynamics" -> "mmmovania/opencloth"
"InteractiveComputerGraphics/PositionBasedDynamics" -> "Scrawk/Position-Based-Dynamics"
"InteractiveComputerGraphics/PositionBasedDynamics" -> "NVIDIAGameWorks/FleX"
"InteractiveComputerGraphics/PositionBasedDynamics" -> "rlguy/GridFluidSim3D"
"InteractiveComputerGraphics/PositionBasedDynamics" -> "libigl/libigl" ["e"=1]
"InteractiveComputerGraphics/PositionBasedDynamics" -> "Yixin-Hu/TetWild" ["e"=1]
"InteractiveComputerGraphics/PositionBasedDynamics" -> "raymondyfei/libwetcloth"
"InteractiveComputerGraphics/PositionBasedDynamics" -> "dilevin/CSC417-physics-based-animation" ["e"=1]
"InteractiveComputerGraphics/PositionBasedDynamics" -> "kuiwuchn/GPUMPM"
"InteractiveComputerGraphics/PositionBasedDynamics" -> "nmwsharp/geometry-central" ["e"=1]
"InteractiveComputerGraphics/PositionBasedDynamics" -> "AnkaChan/Gaia"
"ParticulateFlow/LBDEMcoupling-public" -> "cb-geo/2d-lbm-dem"
"ParticulateFlow/LBDEMcoupling-public" -> "kks32/lbm-dem"
"christopherbatty/Fluid3D" -> "christopherbatty/VariationalViscosity3D"
"christopherbatty/Fluid3D" -> "christopherbatty/FluidRigidCoupling2D"
"peridyno/peridyno" -> "KemengHuang/GPU_IPC"
"peridyno/peridyno" -> "siggraphcontact/rigidBodyTutorial"
"peridyno/peridyno" -> "theodorekim/HOBAKv1"
"peridyno/peridyno" -> "vitalight/Velvet"
"peridyno/peridyno" -> "PhysikaTeam/PhysIKA-old"
"peridyno/peridyno" -> "zhai-xiao/CPP-Fluid-Particles"
"peridyno/peridyno" -> "ipc-sim/ipc-toolkit"
"peridyno/peridyno" -> "phys-sim-book/solid-sim-tutorial"
"peridyno/peridyno" -> "Housz/awesome-simulation"
"peridyno/peridyno" -> "ipc-sim/Codim-IPC"
"peridyno/peridyno" -> "penn-graphics-research/ziran2020"
"peridyno/peridyno" -> "ipc-sim/IPC"
"peridyno/peridyno" -> "ltt1598/Quasi-Newton-Methods-for-Real-time-Simulation-of-Hyperelastic-Materials"
"peridyno/peridyno" -> "kuiwuchn/GPUMPM"
"peridyno/peridyno" -> "spiriMirror/libuipc"
"geomechanics/mpm" -> "fabricix/MPM-Geomechanics"
"geomechanics/mpm" -> "adevaucorbeil/karamelo"
"taichi-dev/quantaichi" -> "YuCrazing/Taichi"
"lanl/MF-LBM" -> "PorousMediaSimulation/openLBMPM"
"lanl/MF-LBM" -> "sorush-khajepor/listLBM"
"lanl/MF-LBM" -> "je-santos/MPLBM-UT"
"lanl/MF-LBM" -> "sthavishtha/list-lattice-Boltzmann-codes"
"lanl/MF-LBM" -> "shurikkuzmin/LatticeBoltzmannMethod"
"lanl/MF-LBM" -> "Franjcf/hybridPorousInterFoam" ["e"=1]
"mmmovania/opencloth" -> "sam007961/FastMassSpring"
"mmmovania/opencloth" -> "InteractiveComputerGraphics/PositionBasedDynamics"
"mmmovania/opencloth" -> "NVIDIAGameWorks/NvCloth"
"mmmovania/opencloth" -> "yuki-koyama/elasty"
"mmmovania/opencloth" -> "sueda/eol-cloth"
"mmmovania/opencloth" -> "ipc-sim/IPC"
"mmmovania/opencloth" -> "raymondyfei/libwetcloth"
"mmmovania/opencloth" -> "vitalight/Velvet"
"mmmovania/opencloth" -> "theodorekim/HOBAKv1"
"mmmovania/opencloth" -> "ipc-sim/Codim-IPC"
"mmmovania/opencloth" -> "sutongkui/simulator"
"mmmovania/opencloth" -> "omegaiota/DiffCloth"
"mmmovania/opencloth" -> "erleben/OpenTissue"
"mmmovania/opencloth" -> "siggraphcontact/rigidBodyTutorial"
"mmmovania/opencloth" -> "dilevin/CSC417-physics-based-animation" ["e"=1]
"ebirenbaum/ParticleSolver" -> "rarietta/Projective-Dynamics"
"ebirenbaum/ParticleSolver" -> "Gfans/UnifiedParticleFrameworkCUDA"
"ebirenbaum/ParticleSolver" -> "Scrawk/Position-Based-Dynamics"
"ebirenbaum/ParticleSolver" -> "jamornsriwasansak/brass-pan"
"ebirenbaum/ParticleSolver" -> "zhai-xiao/CPP-Fluid-Particles"
"ebirenbaum/ParticleSolver" -> "ltt1598/Quasi-Newton-Methods-for-Real-time-Simulation-of-Hyperelastic-Materials"
"ebirenbaum/ParticleSolver" -> "JAGJ10/PositionBasedFluids"
"Q-Minh/position-based-dynamics" -> "Q-Minh/projective-dynamics"
"VasiliBaranov/packing-generation" -> "MosGeo/ParticlePack"
"owensgroup/RXMesh" -> "zenustech/zpc"
"owensgroup/RXMesh" -> "rohan-sawhney/zombie"
"owensgroup/RXMesh" -> "gcherchi/InteractiveAndRobustMeshBooleans" ["e"=1]
"owensgroup/RXMesh" -> "st-tech/ppf-contact-solver"
"rlguy/GridFluidSim3D" -> "rlguy/FLIPViscosity3D"
"rlguy/GridFluidSim3D" -> "doyubkim/fluid-engine-dev" ["e"=1]
"rlguy/GridFluidSim3D" -> "InteractiveComputerGraphics/PositionBasedDynamics"
"rlguy/GridFluidSim3D" -> "InteractiveComputerGraphics/SPlisHSPlasH"
"rlguy/GridFluidSim3D" -> "austinEng/WebGL-PIC-FLIP-Fluid"
"rlguy/GridFluidSim3D" -> "kbladin/Fluid_Simulation" ["e"=1]
"rlguy/GridFluidSim3D" -> "kuiwuchn/GPUMPM"
"rlguy/GridFluidSim3D" -> "tunabrain/incremental-fluids"
"rlguy/GridFluidSim3D" -> "google/FluidNet" ["e"=1]
"rlguy/GridFluidSim3D" -> "raymondyfei/apic2d"
"rlguy/GridFluidSim3D" -> "tunabrain/tungsten" ["e"=1]
"rlguy/GridFluidSim3D" -> "mitsuba-renderer/mitsuba" ["e"=1]
"rlguy/GridFluidSim3D" -> "lighttransport/nanort" ["e"=1]
"rlguy/GridFluidSim3D" -> "christopherbatty/SDFGen" ["e"=1]
"rlguy/GridFluidSim3D" -> "karimnaaji/voxelizer" ["e"=1]
"wlgys8/PBDClothLearn" -> "wlgys8/XPBDUnityRust"
"wlgys8/PBDClothLearn" -> "Q-Minh/position-based-dynamics"
"wlgys8/PBDClothLearn" -> "Scrawk/Position-Based-Dynamics"
"zenustech/zpc" -> "LwRuan/MiNNIE"
"zenustech/zpc" -> "phys-sim-book/solid-sim-tutorial-gpu"
"zenustech/zpc" -> "Xingbaji/PNCG_IPC"
"zenustech/zpc" -> "KemengHuang/GPU_IPC"
"zenustech/zpc" -> "spiriMirror/libuipc"
"zenustech/zpc" -> "AnkaChan/Shortest-Path-to-Boundary-for-Self-Intersecting-Meshes"
"zenustech/zpc" -> "Huangzizhou/DiffIPC-data"
"zenustech/zpc" -> "squarefk/FastIPC"
"zenustech/zpc" -> "HinaPE/HinaPE"
"zenustech/zpc" -> "st-tech/ppf-contact-solver"
"SvenLilge/tdcr-modeling" -> "ContinuumRoboticsLab/CRVisToolkit"
"SvenLilge/tdcr-modeling" -> "JohnDTill/ContinuumRobotExamples"
"rjwalia/Navier-Stokes-Numerical-Solution-Using-FDM-FVM-LBM-Solver-Python-Scripting" -> "jviquerat/lbm"
"PMEAL/porespy" -> "PMEAL/OpenPNM"
"PMEAL/porespy" -> "LukasMosser/PorousMediaGan"
"PMEAL/porespy" -> "pmgbergen/porepy"
"PMEAL/porespy" -> "je-santos/MPLBM-UT"
"PMEAL/porespy" -> "PMEAL/OpenPNM-Examples"
"PMEAL/porespy" -> "ImperialCollegeLondon/pnextract"
"PMEAL/porespy" -> "OPM/LBPM"
"PMEAL/porespy" -> "PMEAL/pytrax"
"PMEAL/porespy" -> "MosGeo/ParticlePack"
"PMEAL/porespy" -> "PMEAL/porespy-examples"
"PMEAL/porespy" -> "tldr-group/taufactor"
"PMEAL/porespy" -> "ImperialCollegeLondon/porescale"
"PMEAL/porespy" -> "VasiliBaranov/packing-generation"
"PMEAL/porespy" -> "PMEAL/openpnm-api"
"PMEAL/porespy" -> "ArashRabbani/Porous_Material_101"
"QibangLiu/PDLSM-FEM_mpi" -> "PeriHub/PeriLab.jl"
"pmocz/latticeboltzmann-python" -> "jviquerat/lbm"
"pmocz/latticeboltzmann-python" -> "pmocz/finitevolume-python"
"pmocz/latticeboltzmann-python" -> "zmhhaha/LBM-Cplusplus-A.A.Mohamad"
"pmocz/latticeboltzmann-python" -> "sthavishtha/list-lattice-Boltzmann-codes"
"pmocz/latticeboltzmann-python" -> "lbm-principles-practice/code"
"pmocz/latticeboltzmann-python" -> "pmocz/cfd-comparison-python"
"pmocz/latticeboltzmann-python" -> "shurikkuzmin/LatticeBoltzmannMethod"
"pmocz/latticeboltzmann-python" -> "pmocz/navier-stokes-spectral-python"
"pmocz/latticeboltzmann-python" -> "ecalzavarini/ch4-project"
"pmocz/latticeboltzmann-python" -> "goktug97/LatticeBoltzmannSimulation"
"pmocz/latticeboltzmann-python" -> "CFD-GO/TCLB"
"pmocz/latticeboltzmann-python" -> "pmocz/sph-python"
"pmocz/latticeboltzmann-python" -> "pmocz/finitedifference-python"
"xuhao1/TaichiSLAM" -> "maksyuki/TaichiGAME"
"xuhao1/TaichiSLAM" -> "ethz-asl/voxgraph" ["e"=1]
"StanfordASL/soft-robot-control" -> "StanfordASL/SSMR-for-control"
"bsavery/ray-tracing-one-weekend-taichi" -> "taichi-dev/taichicon"
"bsavery/ray-tracing-one-weekend-taichi" -> "lyd405121/ti-raytrace"
"bsavery/ray-tracing-one-weekend-taichi" -> "yslib/Cameray"
"bsavery/ray-tracing-one-weekend-taichi" -> "erizmr/taichi_ray_tracing"
"bsavery/ray-tracing-one-weekend-taichi" -> "zenustech/zpc"
"bsavery/ray-tracing-one-weekend-taichi" -> "runck/Taichi_Titanic188"
"bsavery/ray-tracing-one-weekend-taichi" -> "maksyuki/TaichiGAME"
"bsavery/ray-tracing-one-weekend-taichi" -> "taichi-dev/taichi_houdini"
"bsavery/ray-tracing-one-weekend-taichi" -> "theAfish/BlackHoleRayMarching"
"bsavery/ray-tracing-one-weekend-taichi" -> "yikaiw/EIP" ["e"=1]
"taichi-dev/taichi_houdini" -> "maksyuki/TaichiGAME"
"taichi-dev/taichi_houdini" -> "g1n0st/GAMES201"
"GrauleM/somo" -> "GrauleM/somogym"
"GrauleM/somo" -> "GrauleM/somo-rl"
"GrauleM/somo" -> "SamsungLabs/ShellRecontruction"
"GrauleM/somo" -> "SamsungLabs/HIO-SDF"
"asalimil/Trajectory-Tracking-Control-of-an-Octopus-Inspired-Continuum-Robot" -> "lorocks/Nonlinear_Model_Predictive_Control_for_Continuum_Robots"
"Gfans/UnifiedParticleFrameworkCUDA" -> "Gfans/ISPH_NVIDIA_CUDA_CONTEST"
"Gfans/UnifiedParticleFrameworkCUDA" -> "ebirenbaum/ParticleSolver"
"Gfans/UnifiedParticleFrameworkCUDA" -> "ramakarl/fluids3"
"Gfans/UnifiedParticleFrameworkCUDA" -> "nobuo-nakagawa/xpbd"
"ArashRabbani/Porous_Material_101" -> "ArashRabbani/DeePore"
"BJCaasenbrood/soft-robot-model-MATLAB" -> "tud-phi/pcc-pneumatic-piston-backstepping"
"raymondyfei/pyasflip" -> "ethz-pbs21/SandyFluid"
"raymondyfei/pyasflip" -> "g1n0st/GAMES201"
"raymondyfei/pyasflip" -> "theAfish/BlackHoleRayMarching"
"raymondyfei/pyasflip" -> "yhesper/TaichiSimplicialFluid"
"raymondyfei/pyasflip" -> "zenustech/zpc"
"real-stanford/fit2form" -> "SamsungLabs/ShellRecontruction"
"UnconvRS/shale" -> "BinWang0213/MRST_Shale"
"teared/meshlab-in-houdini" -> "zhoub/vhacd4h"
"teared/meshlab-in-houdini" -> "groundflyer/physhader-for-mantra"
"ifsheldon/stannum" -> "victoriacity/taichimd"
"ifsheldon/stannum" -> "Hanke98/AutoQuantizer"
"prashjha/PeriDEM" -> "chtld/BB_PD"
"hzaskywalker/PlasticineLab" -> "zhouxian/FluidLab"
"hzaskywalker/PlasticineLab" -> "mit-gfx/diff_pd_public"
"hzaskywalker/PlasticineLab" -> "hshi74/robocraft" ["e"=1]
"hzaskywalker/PlasticineLab" -> "sizhe-li/CPDeform"
"hzaskywalker/PlasticineLab" -> "mo-hanxuan/FEMcy"
"hzaskywalker/PlasticineLab" -> "YilingQiao/diffsim" ["e"=1]
"hzaskywalker/PlasticineLab" -> "sail-sg/ILD"
"hzaskywalker/PlasticineLab" -> "ifsheldon/stannum"
"hzaskywalker/PlasticineLab" -> "yikaiw/EIP" ["e"=1]
"hzaskywalker/PlasticineLab" -> "ethz-pbs21/SandyFluid"
"Zhijie-YU/MLS_MPM_CPIC" -> "GZhonghui/tiCloth"
"Zhijie-YU/MLS_MPM_CPIC" -> "CzzzzH/MLS-MPM"
"Zhijie-YU/MLS_MPM_CPIC" -> "lyd405121/OpenClothPy"
"zhxx1987/tbb_liquid_amgpcg" -> "christopherbatty/FluidRigidCoupling2D"
"zhxx1987/tbb_liquid_amgpcg" -> "behindthepixels/EDXFluids"
"xzhang66/STAP90" -> "xzhang66/MPM3D-UMAT"
"HauDang/Multiscale-simulation-of-injection-induced-fracture-shear-deformation-and-wing-crack-propagation-in-" -> "HauDang/Numerical-modeling-of-wing-crack-propagation-accounting-for-fracture-contact-mechanics"
"ewyser/ep2-3De" -> "ewyser/fMPMM-solver"
"fabricix/MPM-Py" -> "vinhphunguyen/MPM-Julia"
"ipc-sim/Codim-IPC" -> "ipc-sim/IPC"
"ipc-sim/Codim-IPC" -> "ipc-sim/ipc-toolkit"
"ipc-sim/Codim-IPC" -> "KemengHuang/GPU_IPC"
"ipc-sim/Codim-IPC" -> "zenustech/zpc"
"ipc-sim/Codim-IPC" -> "Continuous-Collision-Detection/Tight-Inclusion"
"ipc-sim/Codim-IPC" -> "ipc-sim/IDP"
"ipc-sim/Codim-IPC" -> "theodorekim/HOBAKv1"
"ipc-sim/Codim-IPC" -> "Xingbaji/PNCG_IPC"
"ipc-sim/Codim-IPC" -> "AnkaChan/Shortest-Path-to-Boundary-for-Self-Intersecting-Meshes"
"ipc-sim/Codim-IPC" -> "spiriMirror/libuipc"
"ipc-sim/Codim-IPC" -> "littlemine/BVH-based-Collision-Detection-Scheme"
"ipc-sim/Codim-IPC" -> "phys-sim-book/solid-sim-tutorial"
"ipc-sim/Codim-IPC" -> "Huangzizhou/DiffIPC-data"
"ipc-sim/Codim-IPC" -> "siggraphcontact/rigidBodyTutorial"
"ipc-sim/Codim-IPC" -> "squarefk/FastIPC"
"yjhp1016/taichi_LBM3D" -> "hietwll/LBM_Taichi"
"yjhp1016/taichi_LBM3D" -> "lanl/MF-LBM"
"yjhp1016/taichi_LBM3D" -> "erizmr/SPH_Taichi"
"yjhp1016/taichi_LBM3D" -> "takah29/2d-fluid-simulator"
"yjhp1016/taichi_LBM3D" -> "jviquerat/lbm"
"yjhp1016/taichi_LBM3D" -> "houkensjtu/taichi-fluid"
"yjhp1016/taichi_LBM3D" -> "pylbm/pylbm"
"yjhp1016/taichi_LBM3D" -> "sailfish-team/sailfish"
"yjhp1016/taichi_LBM3D" -> "je-santos/MPLBM-UT"
"yjhp1016/taichi_LBM3D" -> "lettucecfd/lettuce"
"yjhp1016/taichi_LBM3D" -> "taichi-dev/awesome-taichi"
"yjhp1016/taichi_LBM3D" -> "PorousMediaSimulation/openLBMPM"
"yjhp1016/taichi_LBM3D" -> "sthavishtha/list-lattice-Boltzmann-codes"
"yjhp1016/taichi_LBM3D" -> "taichi-dev/meshtaichi"
"yjhp1016/taichi_LBM3D" -> "shurikkuzmin/LatticeBoltzmannMethod"
"siggraphcontact/rigidBodyTutorial" -> "theodorekim/HOBAKv1"
"siggraphcontact/rigidBodyTutorial" -> "littlemine/BVH-based-Collision-Detection-Scheme"
"siggraphcontact/rigidBodyTutorial" -> "spiriMirror/libuipc"
"siggraphcontact/rigidBodyTutorial" -> "Xingbaji/PNCG_IPC"
"siggraphcontact/rigidBodyTutorial" -> "sheldona/contactFrictionSim"
"siggraphcontact/rigidBodyTutorial" -> "ltt1598/Quasi-Newton-Methods-for-Real-time-Simulation-of-Hyperelastic-Materials"
"siggraphcontact/rigidBodyTutorial" -> "KemengHuang/GPU_IPC"
"sofa-framework/BeamAdapter" -> "SofaDefrost/Cosserat"
"Anura3D/Anura3D_OpenSource" -> "fabricix/MPM-Py"
"Anura3D/Anura3D_OpenSource" -> "geomechanics/mpm"
"Anura3D/Anura3D_OpenSource" -> "adevaucorbeil/karamelo"
"Anura3D/Anura3D_OpenSource" -> "cb-geo/mpm"
"Anura3D/Anura3D_OpenSource" -> "nairnj/nairn-mpm-fea"
"Anura3D/Anura3D_OpenSource" -> "wmcoombs/AMPLE"
"Anura3D/Anura3D_OpenSource" -> "fabricix/MPM-Particle-Generator"
"turhancan97/RL-based-Control-of-a-Soft-Continuum-Robot" -> "turhancan97/2D-and-3D-Constant-Curvature-Kinematics"
"peridigm/peridigm" -> "PeriDoX/PeriDoX"
"peridigm/peridigm" -> "johntfoster/PDpy"
"peridigm/peridigm" -> "alan-turing-institute/PeriPy"
"peridigm/peridigm" -> "mark-hobbs/BB_PD"
"peridigm/peridigm" -> "prashjha/PeriDEM"
"peridigm/peridigm" -> "chtld/BB_PD"
"peridigm/peridigm" -> "PeriHub/PeriLab.jl"
"peridigm/peridigm" -> "lazyzq/MatlabPeridynamicsCode"
"peridigm/peridigm" -> "ORNL/CabanaPD"
"peridigm/peridigm" -> "alijenabi/RelationBasedSoftware"
"peridigm/peridigm" -> "PeriFast/Code"
"peridigm/peridigm" -> "QibangLiu/PDLSM-FEM_mpi"
"peridigm/peridigm" -> "lm2-poly/PeriPyDIC"
"peridigm/peridigm" -> "kaipartmann/Peridynamics.jl"
"vitalight/Velvet" -> "sutongkui/simulator"
"vitalight/Velvet" -> "AnkaChan/Shortest-Path-to-Boundary-for-Self-Intersecting-Meshes"
"vitalight/Velvet" -> "yuki-koyama/elasty"
"vitalight/Velvet" -> "peridyno/peridyno"
"vitalight/Velvet" -> "omegaiota/DiffCloth"
"vitalight/Velvet" -> "Q-Minh/position-based-dynamics"
"vitalight/Velvet" -> "ipc-sim/Codim-IPC"
"vitalight/Velvet" -> "KemengHuang/GPU_IPC"
"vitalight/Velvet" -> "hbertiche/NeuralClothSim" ["e"=1]
"vitalight/Velvet" -> "st-tech/ppf-contact-solver"
"vitalight/Velvet" -> "mit-gfx/diff_pd_public"
"Housz/awesome-simulation" -> "KemengHuang/GPU_IPC"
"Housz/awesome-simulation" -> "spiriMirror/libuipc"
"Housz/awesome-simulation" -> "phys-sim-book/solid-sim-tutorial"
"Housz/awesome-simulation" -> "phys-sim-book/solid-sim-tutorial-gpu"
"Housz/awesome-simulation" -> "siggraphcontact/rigidBodyTutorial"
"Housz/awesome-simulation" -> "theodorekim/HOBAKv1"
"Housz/awesome-simulation" -> "peridyno/peridyno"
"Housz/awesome-simulation" -> "zenustech/zpc"
"Housz/awesome-simulation" -> "ipc-sim/IPC"
"Housz/awesome-simulation" -> "mit-gfx/diff_pd_public"
"Housz/awesome-simulation" -> "MuGdxy/muda"
"Housz/awesome-simulation" -> "xuan-li/PAC-NeRF" ["e"=1]
"Housz/awesome-simulation" -> "zeshunzong/warp-mpm" ["e"=1]
"Housz/awesome-simulation" -> "phys-sim-book/mdbook-src"
"Housz/awesome-simulation" -> "ipc-sim/ipc-toolkit"
"houkensjtu/taichi-fluid" -> "takah29/2d-fluid-simulator"
"houkensjtu/taichi-fluid" -> "erizmr/SPH_Taichi"
"houkensjtu/taichi-fluid" -> "Xingbaji/PNCG_IPC"
"houkensjtu/taichi-fluid" -> "ShaneFX/GAMES201"
"houkensjtu/taichi-fluid" -> "houkensjtu/taichi-2d-vof"
"bsavery/BlenderPythonRenderer" -> "knightyFF/Taichi-SDF-toy"
"squarefk/FastIPC" -> "Hanke98/AutoQuantizer"
"mit-gfx/diff_pd_public" -> "theodorekim/HOBAKv1"
"mit-gfx/diff_pd_public" -> "omegaiota/DiffCloth"
"mit-gfx/diff_pd_public" -> "ltt1598/Quasi-Newton-Methods-for-Real-time-Simulation-of-Hyperelastic-Materials"
"mit-gfx/diff_pd_public" -> "AnkaChan/Shortest-Path-to-Boundary-for-Self-Intersecting-Meshes"
"mit-gfx/diff_pd_public" -> "williamljb/DifferentiableCloth"
"mit-gfx/diff_pd_public" -> "KemengHuang/GPU_IPC"
"mit-gfx/diff_pd_public" -> "srl-ethz/diffPD_sim2real"
"mit-gfx/diff_pd_public" -> "zhehaoli1999/DiffFR"
"mit-gfx/diff_pd_public" -> "spiriMirror/libuipc"
"mit-gfx/diff_pd_public" -> "phys-sim-book/solid-sim-tutorial"
"omegaiota/DiffCloth" -> "mit-gfx/diff_pd_public"
"omegaiota/DiffCloth" -> "theodorekim/HOBAKv1"
"omegaiota/DiffCloth" -> "williamljb/DifferentiableCloth"
"omegaiota/DiffCloth" -> "ipc-sim/IPC"
"omegaiota/DiffCloth" -> "KemengHuang/GPU_IPC"
"omegaiota/DiffCloth" -> "ipc-sim/ipc-toolkit"
"omegaiota/DiffCloth" -> "hbertiche/NeuralClothSim" ["e"=1]
"omegaiota/DiffCloth" -> "phys-sim-book/solid-sim-tutorial"
"omegaiota/DiffCloth" -> "isantesteban/snug" ["e"=1]
"omegaiota/DiffCloth" -> "ipc-sim/Codim-IPC"
"omegaiota/DiffCloth" -> "vitalight/Velvet"
"omegaiota/DiffCloth" -> "nmwsharp/neural-physics-subspaces"
"omegaiota/DiffCloth" -> "Continuous-Collision-Detection/Tight-Inclusion"
"omegaiota/DiffCloth" -> "coreqode/awesome-cloth-simulation" ["e"=1]
"omegaiota/DiffCloth" -> "rsugimoto/SurfaceOnlyDeformables"
"kaust-csg-uaamg/uaamg" -> "zenustech/zpc"
"kaust-csg-uaamg/uaamg" -> "rgoldade/ReducedFluids"
"kaust-csg-uaamg/uaamg" -> "jakericedesigns/Assorted-Houdini-Demos" ["e"=1]
"kaust-csg-uaamg/uaamg" -> "theodorekim/HOBAKv1"
"kaust-csg-uaamg/uaamg" -> "rgoldade/AdaptiveViscositySolver"
"kaust-csg-uaamg/uaamg" -> "DQLin/VolumetricReSTIRRelease" ["e"=1]
"phys-sim-book/solid-sim-tutorial" -> "ipc-sim/ipc-toolkit"
"phys-sim-book/solid-sim-tutorial" -> "phys-sim-book/solid-sim-tutorial-gpu"
"phys-sim-book/solid-sim-tutorial" -> "phys-sim-book/phys-sim-book.github.io"
"phys-sim-book/solid-sim-tutorial" -> "phys-sim-book/mdbook-src"
"phys-sim-book/solid-sim-tutorial" -> "zenustech/zpc"
"phys-sim-book/solid-sim-tutorial" -> "theodorekim/HOBAKv1"
"phys-sim-book/solid-sim-tutorial" -> "KemengHuang/GPU_IPC"
"phys-sim-book/solid-sim-tutorial" -> "zeshunzong/warp-mpm" ["e"=1]
"phys-sim-book/solid-sim-tutorial" -> "st-tech/ppf-contact-solver"
"phys-sim-book/solid-sim-tutorial" -> "mit-gfx/diff_pd_public"
"phys-sim-book/solid-sim-tutorial" -> "Huangzizhou/DiffIPC-data"
"phys-sim-book/solid-sim-tutorial" -> "ipc-sim/IPC"
"phys-sim-book/solid-sim-tutorial" -> "spiriMirror/libuipc"
"phys-sim-book/solid-sim-tutorial" -> "AnkaChan/Shortest-Path-to-Boundary-for-Self-Intersecting-Meshes"
"phys-sim-book/solid-sim-tutorial" -> "Housz/awesome-simulation"
"SofaDefrost/SofaGym" -> "andreaprotopapa/sofa-dr-rl"
"SofaDefrost/SofaGym" -> "sofa-framework/SofaPython3"
"SofaDefrost/SofaGym" -> "ScheiklP/sofa_env" ["e"=1]
"SofaDefrost/SofaGym" -> "SofaDefrost/Cosserat"
"SofaDefrost/SofaGym" -> "SofaDefrost/SoftRobots"
"SofaDefrost/SofaGym" -> "GazzolaLab/Elastica-RL-control"
"GZhonghui/tiCloth" -> "lyd405121/OpenClothPy"
"SoRoSim/SoRoSim" -> "GazzolaLab/Elastica-RL-control"
"SoRoSim/SoRoSim" -> "BJCaasenbrood/soft-robot-model-MATLAB"
"SoRoSim/SoRoSim" -> "BJCaasenbrood/SorotokiCode"
"SoRoSim/SoRoSim" -> "tud-phi/pcc-pneumatic-piston-backstepping"
"SoRoSim/SoRoSim" -> "ramvasudevan/soft-robot-koopman"
"Shaswat2001/continuum_robot_rviz" -> "Shaswat2001/INN_Continuum_Robot"
"PeriFast/Code" -> "ORNL/PDMATLAB2D"
"taichi-dev/voxel-challenge" -> "lyd405121/OpenClothPy"
"taichi-dev/voxel-challenge" -> "taichi-dev/meshtaichi"
"taichi-dev/voxel-challenge" -> "taichi-dev/awesome-taichi"
"taichi-dev/voxel-challenge" -> "knightyFF/Taichi-SDF-toy"
"taichi-dev/voxel-challenge" -> "yuanming-hu/voxel-art"
"taichi-dev/voxel-challenge" -> "ShaneFX/GAMES201"
"taichi-dev/voxel-challenge" -> "Jack12xl/a-toy-fluid-engine"
"yslib/Cameray" -> "runck/Taichi_Titanic188"
"yslib/Cameray" -> "AntonioFerreras/Digital-Earth"
"yslib/Cameray" -> "erizmr/taichi_ray_tracing"
"lucaricciatl/continuum-control" -> "lorocks/Nonlinear_Model_Predictive_Control_for_Continuum_Robots"
"turhancan97/2D-and-3D-Constant-Curvature-Kinematics" -> "lucaricciatl/continuum-kinematics"
"turhancan97/2D-and-3D-Constant-Curvature-Kinematics" -> "lucaricciatl/continuum-control"
"nairnj/nairn-mpm-fea" -> "adevaucorbeil/karamelo"
"nairnj/nairn-mpm-fea" -> "Elias-Gu/MPM2D"
"nairnj/nairn-mpm-fea" -> "xzhang66/MPM3D-F90"
"nairnj/nairn-mpm-fea" -> "cb-geo/mpm"
"nairnj/nairn-mpm-fea" -> "geomechanics/mpm"
"theAfish/BlackHoleRayMarching" -> "theAfish/Homework-2-Ant-Colony"
"takah29/2d-fluid-simulator" -> "lyd405121/wcsph"
"takah29/2d-fluid-simulator" -> "houkensjtu/karman_taichi"
"takah29/2d-fluid-simulator" -> "Robslhc/WaterSim"
"takah29/2d-fluid-simulator" -> "houkensjtu/taichi-fluid"
"CFD-GO/TCLB" -> "shurikkuzmin/LatticeBoltzmannMethod"
"CFD-GO/TCLB" -> "sailfish-team/sailfish"
"CFD-GO/TCLB" -> "pylbm/pylbm"
"CFD-GO/TCLB" -> "lanl/MF-LBM"
"CFD-GO/TCLB" -> "sthavishtha/list-lattice-Boltzmann-codes"
"CFD-GO/TCLB" -> "lbm-principles-practice/code"
"CFD-GO/TCLB" -> "AbbasHub/AMR-LBM-OpenMP-2D"
"CFD-GO/TCLB" -> "joconnor22/LIFE"
"CFD-GO/TCLB" -> "lettucecfd/lettuce"
"CFD-GO/TCLB" -> "ParticulateFlow/LBDEMcoupling-public"
"CFD-GO/TCLB" -> "HiFiLES/HiFiLES-solver" ["e"=1]
"CFD-GO/TCLB" -> "ecalzavarini/ch4-project"
"CFD-GO/TCLB" -> "cfdemons/LUMA"
"skim0119/gym-softrobot" -> "GazzolaLab/Elastica-RL-control"
"skim0119/gym-softrobot" -> "armantekinalp/MagnetoPyElastica"
"mimesis-inria/DeepPhysX" -> "mimesis-inria/caribou"
"NVlabs/DiSECt" -> "real-stanford/roboninja"
"Hanke98/AutoQuantizer" -> "kuiwuchn/SagFreeMPM"
"Hanke98/AutoQuantizer" -> "squarefk/FastIPC"
"lm2-poly/PeriPyDIC" -> "lm2-poly/PeriPyVFM"
"lm2-poly/PeriPyDIC" -> "zhaohaiyang01/An-ordinary-state-based-peridynamics-OSBPD-"
"lm2-poly/PeriPyDIC" -> "nw2190/LAMMPS"
"lm2-poly/PeriPyDIC" -> "chtld/BB_PD"
"GrauleM/somogym" -> "GrauleM/somo-rl"
"GrauleM/somogym" -> "SamsungLabs/ShellRecontruction"
"GrauleM/somogym" -> "SamsungLabs/HIO-SDF"
"Hakowan/hakowan" -> "alecjacobson/indexed_sum"
"Hakowan/hakowan" -> "alecjacobson/gp-cli"
"erizmr/taichi_ray_tracing" -> "houkensjtu/karman_taichi"
"maksyuki/TaichiGAME" -> "theAfish/BlackHoleRayMarching"
"maksyuki/TaichiGAME" -> "yhesper/TaichiSimplicialFluid"
"maksyuki/TaichiGAME" -> "lyd405121/OpenClothPy"
"maksyuki/TaichiGAME" -> "taichi-dev/taichicon"
"PMEAL/openpnm-api" -> "PMEAL/porespy-examples"
"taichi-dev/awesome-taichi" -> "taichi-dev/meshtaichi"
"taichi-dev/awesome-taichi" -> "erizmr/SPH_Taichi"
"taichi-dev/awesome-taichi" -> "houkensjtu/taichi-fluid"
"taichi-dev/awesome-taichi" -> "taichi-dev/taichi_elements"
"taichi-dev/awesome-taichi" -> "taichi-dev/voxel-challenge"
"taichi-dev/awesome-taichi" -> "ifsheldon/stannum"
"taichi-dev/awesome-taichi" -> "yjhp1016/taichi_LBM3D"
"taichi-dev/awesome-taichi" -> "xuan-li/PAC-NeRF" ["e"=1]
"taichi-dev/awesome-taichi" -> "taichi-dev/taichi-nerfs" ["e"=1]
"taichi-dev/awesome-taichi" -> "Zhijie-YU/MLS_MPM_CPIC"
"taichi-dev/awesome-taichi" -> "Linyou/taichi-ngp-renderer" ["e"=1]
"taichi-dev/awesome-taichi" -> "mo-hanxuan/FEMcy"
"taichi-dev/awesome-taichi" -> "Yihao-Shi/GeoTaichi"
"taichi-dev/awesome-taichi" -> "taichi-dev/taichicon"
"taichi-dev/awesome-taichi" -> "ipc-sim/IPC"
"taichi-dev/meshtaichi" -> "mo-hanxuan/FEMcy"
"taichi-dev/meshtaichi" -> "yhesper/TaichiSimplicialFluid"
"taichi-dev/meshtaichi" -> "Zhijie-YU/MLS_MPM_CPIC"
"taichi-dev/meshtaichi" -> "taichi-dev/awesome-taichi"
"taichi-dev/meshtaichi" -> "erizmr/SPH_Taichi"
"taichi-dev/meshtaichi" -> "theodorekim/HOBAKv1"
"taichi-dev/meshtaichi" -> "lyd405121/OpenClothPy"
"taichi-dev/meshtaichi" -> "lyd405121/ti-raytrace"
"taichi-dev/meshtaichi" -> "patr-schm/TinyAD" ["e"=1]
"ContinuumRoboticsLab/CRVisToolkit" -> "elhussieny/continuum_robot"
"ContinuumRoboticsLab/CRVisToolkit" -> "SvenLilge/tdcr-modeling"
"ContinuumRoboticsLab/CRVisToolkit" -> "turhancan97/RL-based-Control-of-a-Soft-Continuum-Robot"
"ContinuumRoboticsLab/CRVisToolkit" -> "turhancan97/2D-and-3D-Constant-Curvature-Kinematics"
"ContinuumRoboticsLab/CRVisToolkit" -> "OpenSourceMedicalRobots/Endo-Continuum-Robot-Library"
"ContinuumRoboticsLab/CRVisToolkit" -> "Shaswat2001/continuum_robot_rviz"
"rlee32/lbm_matlab" -> "siramirsaman/LBM"
"rlee32/lbm_matlab" -> "shurikkuzmin/LBMWorkshop"
"rlee32/lbm_matlab" -> "zmhhaha/LBM-Cplusplus-A.A.Mohamad"
"mo-hanxuan/FEMcy" -> "taichi-dev/meshtaichi"
"mo-hanxuan/FEMcy" -> "tianshao1992/FEM_taichi"
"mo-hanxuan/FEMcy" -> "hzaskywalker/PlasticineLab"
"mo-hanxuan/FEMcy" -> "zhehaoli1999/taichi-TopOpt"
"mo-hanxuan/FEMcy" -> "maksyuki/TaichiGAME"
"lazyzq/MatlabPeridynamicsCode" -> "zhaohaiyang01/An-ordinary-state-based-peridynamics-OSBPD-"
"theodorekim/HOBAKv1" -> "st-tech/ppf-contact-solver"
"theodorekim/HOBAKv1" -> "ipc-sim/ipc-toolkit"
"theodorekim/HOBAKv1" -> "mit-gfx/diff_pd_public"
"theodorekim/HOBAKv1" -> "ltt1598/Quasi-Newton-Methods-for-Real-time-Simulation-of-Hyperelastic-Materials"
"theodorekim/HOBAKv1" -> "KemengHuang/GPU_IPC"
"theodorekim/HOBAKv1" -> "omegaiota/DiffCloth"
"theodorekim/HOBAKv1" -> "ipc-sim/IPC"
"theodorekim/HOBAKv1" -> "phys-sim-book/solid-sim-tutorial"
"theodorekim/HOBAKv1" -> "AnkaChan/Shortest-Path-to-Boundary-for-Self-Intersecting-Meshes"
"theodorekim/HOBAKv1" -> "siggraphcontact/rigidBodyTutorial"
"theodorekim/HOBAKv1" -> "spiriMirror/libuipc"
"theodorekim/HOBAKv1" -> "dio-exploded/PainlessMG"
"theodorekim/HOBAKv1" -> "Continuous-Collision-Detection/Tight-Inclusion"
"theodorekim/HOBAKv1" -> "LamWS/iARAP"
"theodorekim/HOBAKv1" -> "phys-sim-book/solid-sim-tutorial-gpu"
"InfinyTech3D/SofaUnity" -> "tbs-ualberta/CRESSim"
"InfinyTech3D/SofaUnity" -> "InfinyTech3D/SofaUE5-Renderer"
"InfinyTech3D/SofaUnity" -> "ChiaraSapo/Open-Source-Visuo-Haptic-Simulator-for-Surgical-Training"
"InfinyTech3D/SofaUnity" -> "sofa-framework/BeamAdapter"
"yhesper/TaichiSimplicialFluid" -> "knightyFF/Taichi-SDF-toy"
"yhesper/TaichiSimplicialFluid" -> "g1n0st/power-pic"
"yhesper/TaichiSimplicialFluid" -> "DIOYF/UE5simulation_TaichiAOTMode"
"shurikkuzmin/LatticeBoltzmannMethod" -> "shurikkuzmin/LBMWorkshop"
"shurikkuzmin/LatticeBoltzmannMethod" -> "lbm-principles-practice/code"
"shurikkuzmin/LatticeBoltzmannMethod" -> "sthavishtha/list-lattice-Boltzmann-codes"
"shurikkuzmin/LatticeBoltzmannMethod" -> "andresgm/IBMlb-poiseuille"
"shurikkuzmin/LatticeBoltzmannMethod" -> "zmhhaha/LBM-Cplusplus-A.A.Mohamad"
"shurikkuzmin/LatticeBoltzmannMethod" -> "CFD-GO/TCLB"
"shurikkuzmin/LatticeBoltzmannMethod" -> "siramirsaman/LBM"
"shurikkuzmin/LatticeBoltzmannMethod" -> "lanl/MF-LBM"
"shurikkuzmin/LatticeBoltzmannMethod" -> "rlee32/lbm_matlab"
"TIMClab-CAMI/Cosserat-Rod-Modeling-of-Tendon-Actuated-Continuum-Robots" -> "lucaricciatl/continuum-kinematics"
"zhouxian/FluidLab" -> "hzaskywalker/PlasticineLab"
"zhouxian/FluidLab" -> "mit-gfx/diff_pd_public"
"zhouxian/FluidLab" -> "NVlabs/DiSECt"
"zhouxian/FluidLab" -> "zeshunzong/warp-mpm" ["e"=1]
"zhouxian/FluidLab" -> "xuan-li/PAC-NeRF" ["e"=1]
"kaipartmann/Peridynamics.jl" -> "PeriHub/PeriLab.jl"
"xzhang66/FEM-Book" -> "xzhang66/STAP90"
"Mr-November/micsolver" -> "lorocks/Nonlinear_Model_Predictive_Control_for_Continuum_Robots"
"jim19930609/taichi-unreal" -> "DIOYF/UE5simulation_TaichiAOTMode"
"LamWS/iARAP" -> "KemengHuang/GPU_IPC"
"LamWS/iARAP" -> "rsugimoto/SurfaceOnlyDeformables"
"LamWS/iARAP" -> "Alvf/Collision-Penalty-Analysis"
"LamWS/iARAP" -> "honglin-c/abs-psd"
"LamWS/iARAP" -> "spiriMirror/libuipc"
"MuGdxy/muda" -> "KemengHuang/GPU_IPC"
"MuGdxy/muda" -> "phys-sim-book/solid-sim-tutorial-gpu"
"MuGdxy/muda" -> "spiriMirror/libuipc"
"MuGdxy/muda" -> "zenustech/zpc"
"MuGdxy/muda" -> "st-tech/ppf-contact-solver"
"MuGdxy/muda" -> "Huangzizhou/DiffIPC-data"
"MuGdxy/muda" -> "jrsassen/repulsive-shells"
"MuGdxy/muda" -> "LamWS/iARAP"
"MuGdxy/muda" -> "AnkaChan/Shortest-Path-to-Boundary-for-Self-Intersecting-Meshes"
"MuGdxy/muda" -> "phys-sim-book/solid-sim-tutorial"
"MuGdxy/muda" -> "theodorekim/HOBAKv1"
"InteractiveComputerGraphics/blender-sequence-loader" -> "InteractiveComputerGraphics/TreeNSearch"
"InteractiveComputerGraphics/blender-sequence-loader" -> "InteractiveComputerGraphics/stark"
"InteractiveComputerGraphics/blender-sequence-loader" -> "InteractiveComputerGraphics/FastCorotatedFEM" ["e"=1]
"InteractiveComputerGraphics/TreeNSearch" -> "InteractiveComputerGraphics/stark"
"GrauleM/somo-rl" -> "SamsungLabs/ShellRecontruction"
"rsugimoto/SurfaceOnlyDeformables" -> "Alvf/Collision-Penalty-Analysis"
"PMEAL/OpenPNM-Examples" -> "PMEAL/openpnm-api"
"PMEAL/OpenPNM-Examples" -> "PMEAL/porespy-examples"
"DIOYF/UE5simulation_TaichiAOTMode" -> "jim19930609/taichi-unreal"
"Kasai2020/look_both_ways" -> "SamsungLabs/ShellRecontruction"
"mhgolestan/MatlabPNM" -> "jdechalendar/pnm-generation"
"mhgolestan/MatlabPNM" -> "khazali/Starfish"
"tytrusty/mfem" -> "dilevin/Bartels"
"sofa-framework/sofa" -> "SofaDefrost/SoftRobots"
"sofa-framework/sofa" -> "sofa-framework/SofaPython3"
"sofa-framework/sofa" -> "SofaDefrost/Cosserat"
"sofa-framework/sofa" -> "InteractiveComputerGraphics/PositionBasedDynamics"
"sofa-framework/sofa" -> "sofa-framework/doc"
"sofa-framework/sofa" -> "SofaDefrost/SofaGym"
"sofa-framework/sofa" -> "ipc-sim/IPC"
"sofa-framework/sofa" -> "polyfem/polyfem" ["e"=1]
"sofa-framework/sofa" -> "mimesis-inria/caribou"
"sofa-framework/sofa" -> "projectchrono/chrono" ["e"=1]
"sofa-framework/sofa" -> "Yixin-Hu/TetWild" ["e"=1]
"sofa-framework/sofa" -> "mimesis-inria/DeepPhysX"
"sofa-framework/sofa" -> "erwincoumans/tiny-differentiable-simulator" ["e"=1]
"sofa-framework/sofa" -> "InteractiveComputerGraphics/SPlisHSPlasH"
[...]
"equinor/resdata" ["l"="40.565,22.487"]
"ajacquey/golem" ["l"="62.769,1.624"]
"sintefmath/JutulDarcy.jl" ["l"="40.445,22.496"]
"yohanesnuwara/carbon-capture-and-storage" ["l"="40.786,22.379"]
"lettucecfd/lettuce" ["l"="62.707,1.326"]
"CFD-GO/TCLB" ["l"="62.703,1.374"]
"pylbm/pylbm" ["l"="62.694,1.336"]
"Autodesk/XLB" ["l"="21.939,14.07"]
"tumaer/JAXFLUIDS" ["l"="63.257,-1.606"]
"yjhp1016/taichi_LBM3D" ["l"="62.686,1.262"]
"spectralDNS/spectralDNS" ["l"="63.239,-1.6"]
"raymondyfei/libWetHair" ["l"="62.697,1.152"]
"omegaiota/DiffCloth" ["l"="62.602,1.208"]
"raymondyfei/creamystrand" ["l"="62.708,1.115"]
"sueda/redmax" ["l"="62.575,1.247"]
"evouga/collisiondetection" ["l"="62.53,1.275"]
"dnicolasespinoza/GeomechanicsJupyter" ["l"="62.839,1.587"]
"johnfoster-pge-utexas/PGE334-ResGeomechanics" ["l"="62.863,1.616"]
"salsa360/Geomechanics" ["l"="62.863,1.598"]
"Zhijie-YU/Learning_Notes" ["l"="62.674,0.967"]
"Maarten-vd-Sande/smoothed-particle-hydrodynamics" ["l"="62.66,0.999"]
"fwilliams/numpyeigen" ["l"="62.453,1.361"]
"jiangzhongshi/bijective-projection-shell" ["l"="63.014,0.336"]
"alecjacobson/gp-cli" ["l"="62.496,1.322"]
"ziyinq/Bimocq" ["l"="62.677,1.086"]
"zhxx1987/tbb_liquid_amgpcg" ["l"="62.761,1.014"]
"maksyuki/TaichiGAME" ["l"="62.554,1.044"]
"takah29/2d-fluid-simulator" ["l"="62.662,1.14"]
"christopherbatty/Fluid3D" ["l"="62.776,0.997"]
"alecjacobson/computer-graphics-mass-spring-systems" ["l"="62.643,1.31"]
"LegendGraphics/FastMassSpring" ["l"="62.65,1.289"]
"dilevin/CSC417-a4-cloth-simulation" ["l"="62.589,1.305"]
"vasumahesh1/Flamenco" ["l"="62.666,1.293"]
"ipc-sim/Codim-IPC" ["l"="62.612,1.189"]
"evouga/libshell" ["l"="62.479,1.308"]
"Hakowan/hakowan" ["l"="62.466,1.33"]
"jiaxinchi/lbm" ["l"="62.826,1.434"]
"atruszkowska/LBM_MATLAB" ["l"="62.819,1.42"]
"ToruNiina/lbvh" ["l"="62.543,1.2"]
"spiriMirror/libuipc" ["l"="62.575,1.173"]
"rohan-sawhney/zombie" ["l"="62.514,1.21"]
"MuGdxy/muda" ["l"="62.55,1.18"]
"jerry060599/KittenGpuLBVH" ["l"="62.499,1.227"]
"owensgroup/RXMesh" ["l"="62.501,1.19"]
"phys-sim-book/solid-sim-tutorial-gpu" ["l"="62.562,1.169"]
"ipc-sim/rigid-ipc" ["l"="62.598,1.224"]
"thunil/mantaflow" ["l"="62.912,0.977"]
"tum-pbs/mantaflow" ["l"="62.948,0.979"]
"christopherbatty/VariationalViscosity3D" ["l"="62.825,0.976"]
"xzhang66/STAP90" ["l"="62.878,1.21"]
"johntfoster/PDpy" ["l"="62.484,0.768"]
"mark-hobbs/BB_PD" ["l"="62.482,0.746"]
"chtld/BB_PD" ["l"="62.513,0.77"]
"PeriDoX/PeriDoX" ["l"="62.467,0.755"]
"alan-turing-institute/PeriPy" ["l"="62.463,0.724"]
"peridigm/peridigm" ["l"="62.5,0.749"]
"nonlocalmodels/NLMech" ["l"="62.438,0.756"]
"aboria/Aboria" ["l"="62.585,0.908"]
"xzhang66/MPM3D-UMAT" ["l"="62.897,1.218"]
"BinWang0213/MRST_Shale" ["l"="62.788,1.675"]
"UnconvRS/shale" ["l"="62.789,1.652"]
"kipfstuhl/porous_lbm" ["l"="62.852,1.441"]
"grvlbit/THERMAID" ["l"="62.792,1.609"]
"nobuo-nakagawa/strain_based_dynamics" ["l"="62.611,1.276"]
"FZzzz/JellySimulation" ["l"="62.609,1.298"]
"QuocAnh90/MPM2D_basic" ["l"="62.918,1.2"]
"QuocAnh90/DOUBLEMPM" ["l"="62.939,1.204"]
"xzhang66/STAPpp" ["l"="62.929,1.232"]
"xzhang66/FEM-Python" ["l"="62.955,1.244"]
"wkindling/Yarn-cloth-sim" ["l"="62.616,1.309"]
"wkindling/Eulerian-on-Lagrangian-Cloth-Sim" ["l"="62.601,1.288"]
"ImperialCollegeLondon/poreFoam-singlePhase" ["l"="62.82,1.543"]
"cfdemons/LUMA" ["l"="62.721,1.425"]
"joconnor22/LIFE" ["l"="62.723,1.404"]
"zhaohaiyang01/An-ordinary-state-based-peridynamics-OSBPD-" ["l"="62.494,0.731"]
"janelchua/Phase-field-and-Peridynamics" ["l"="62.533,0.768"]
"PMEAL/porespy-examples" ["l"="62.747,1.537"]
"PMEAL/openpnm-api" ["l"="62.758,1.544"]
"matthias-research/pages" ["l"="62.683,1.164"]
"NVIDIAGameWorks/FleX" ["l"="62.711,1.17"]
"AnkaChan/Gaia" ["l"="62.62,1.172"]
"Yixin-Hu/TetWild" ["l"="62.943,0.197"]
"wildmeshing/fTetWild" ["l"="62.949,0.211"]
"vcg-uvic/viper" ["l"="62.673,1.191"]
"erwincoumans/tiny-differentiable-simulator" ["l"="61.241,16.312"]
"google/brax" ["l"="61.202,16.367"]
"tum-pbs/PhiFlow" ["l"="21.772,15.86"]
"thunil/Physics-Based-Deep-Learning" ["l"="21.708,15.89"]
"NVIDIA/warp" ["l"="61.236,16.348"]
"BachiLi/redner" ["l"="63.665,1.385"]
"yuanming-hu/taichi" ["l"="62.703,1.023"]
"henry2004y/LBMD2Q9" ["l"="62.681,1.418"]
"loliverhennigh/Lattice-Boltzmann-fluid-flow-in-Tensorflow" ["l"="63.497,-2.544"]
"hietwll/LBM_Taichi" ["l"="62.683,1.241"]
"ecoon/Taxila-LBM" ["l"="62.782,1.371"]
"nyxcalamity/lbm-gpu" ["l"="62.772,1.344"]
"iheartla/iheartla" ["l"="62.513,1.266"]
"seungbaebang/complementary-dynamics-cpp" ["l"="29.658,28.976"]
"sgsellan/fracture-modes" ["l"="64.421,1.055"]
"AlohaLBM/The-tutorial-of-the-lattice-Boltzmann-method" ["l"="62.677,1.432"]
"taichi-dev/taichi_glsl" ["l"="62.64,1.041"]
"pmocz/finitevolume-python" ["l"="62.645,1.473"]
"pmocz/finitevolume2-python" ["l"="62.62,1.486"]
"pmocz/latticeboltzmann-python" ["l"="62.66,1.411"]
"pmocz/constrainedtransport-python" ["l"="62.645,1.503"]
"pmocz/navier-stokes-spectral-python" ["l"="62.654,1.454"]
"saadtony/uCFD" ["l"="62.626,1.517"]
"williamljb/DifferentiableCloth" ["l"="62.558,1.237"]
"BJCaasenbrood/SorotokiCode" ["l"="63.019,0.897"]
"chukhanhhoang/SoftRoboticSetupFesto" ["l"="63.026,0.877"]
"BJCaasenbrood/soft-robot-model-MATLAB" ["l"="63.043,0.908"]
"OpenSourceMedicalRobots/Endo-Continuum-Robot" ["l"="63.135,0.826"]
"OpenSourceMedicalRobots/Endo-Continuum-Robot-Library" ["l"="63.115,0.837"]
"InteractiveComputerGraphics/splashsurf" ["l"="62.721,0.999"]
"InteractiveComputerGraphics/blender-sequence-loader" ["l"="62.735,0.956"]
"InteractiveComputerGraphics/stark" ["l"="62.742,0.933"]
"jason-huang03/SPH_Project" ["l"="62.684,1.035"]
"InteractiveComputerGraphics/TreeNSearch" ["l"="62.724,0.942"]
"UCL/LatBo.jl" ["l"="62.815,1.383"]
"ramvasudevan/soft-robot-koopman" ["l"="63.074,0.936"]
"StanfordASL/soft-robot-control" ["l"="63.108,0.948"]
"lsw9021/MASS" ["l"="61.17,16.166"]
"electronicarts/dem-bones" ["l"="-31.495,-27.67"]
"GPUOpen-Effects/FEMFX" ["l"="62.701,1.201"]
"TomohikoMukai/ssdr" ["l"="-31.523,-27.802"]
"GPUOpen-Effects/TressFX" ["l"="-23.192,-27.779"]
"NVIDIAGameWorks/Blast" ["l"="62.732,1.225"]
"mmacklin/tinsel" ["l"="-24.576,-27.892"]
"erleben/OpenTissue" ["l"="62.669,1.261"]
"GPUOpen-Effects/FidelityFX" ["l"="-23.119,-27.777"]
"NVIDIAGameWorks/NvCloth" ["l"="62.703,1.22"]
"nfrechette/acl" ["l"="-21.949,-25.576"]
"FZzzz/FluidSimulation" ["l"="62.602,1.319"]
"2b-t/LB-t" ["l"="62.757,1.373"]
"ecalzavarini/ch4-project" ["l"="62.672,1.378"]
"mehdiataei/LBfoam" ["l"="62.759,1.39"]
"sthavishtha/turbulence-codes" ["l"="63.291,-1.526"]
"victoriacity/taichimd" ["l"="62.506,1.069"]
"g1n0st/GAMES201" ["l"="62.594,1.079"]
"phys-sim-book/solid-sim-tutorial" ["l"="62.588,1.163"]
"GraphicsReplicability/replicability.graphics" ["l"="62.588,1.353"]
"adobe/sbmc" ["l"="-24.338,-27.897"]
"uci-rendering/psdr-cuda" ["l"="-24.443,-27.795"]
"ArashRabbani/DeePore" ["l"="62.802,1.553"]
"ArashRabbani/Porous_Material_101" ["l"="62.778,1.558"]
"polyfem/polyfem" ["l"="62.93,0.186"]
"millag/DiscreteElasticRods" ["l"="62.826,1.038"]
"Huangzizhou/DiffIPC-data" ["l"="62.551,1.17"]
"honglin-c/abs-psd" ["l"="62.557,1.191"]
"jviquerat/lbm" ["l"="62.677,1.344"]
"GazzolaLab/PyElastica" ["l"="62.982,0.906"]
"GazzolaLab/Elastica-RL-control" ["l"="62.982,0.929"]
"skim0119/gym-softrobot" ["l"="62.965,0.916"]
"armantekinalp/MagnetoPyElastica" ["l"="62.964,0.895"]
"StructuresComp/dismech-rods" ["l"="62.973,0.871"]
"mattialab/elastica" ["l"="63.003,0.881"]
"elhussieny/continuum_robot" ["l"="63.043,0.864"]
"taichi-dev/taichi_three" ["l"="62.606,1.096"]
"raymondyfei/pyasflip" ["l"="62.547,1.091"]
"taichi-dev/taichi_blend" ["l"="62.596,1.05"]
"taichi-dev/meshtaichi" ["l"="62.596,1.111"]
"taichi-dev/taichi_houdini" ["l"="62.574,1.037"]
"taichi-dev/games201" ["l"="62.639,1.103"]
"Robslhc/WaterSim" ["l"="62.613,1.085"]
"lilinxi/Games201HW" ["l"="62.569,1.051"]
"ShaneFX/GAMES201" ["l"="62.623,1.094"]
"taichi-dev/taichicon" ["l"="62.552,1.06"]
"taichiCourse01/taichiCourse01" ["l"="-17.047,-3.716"]
"seiing/SoftCon" ["l"="62.567,1.293"]
"hejob/taichi-fvm2d-fluid-ns" ["l"="62.732,1.187"]
"cb-geo/2d-lbm-dem" ["l"="62.723,1.31"]
"houkensjtu/taichi-fluid" ["l"="62.66,1.157"]
"Jack12xl/a-toy-fluid-engine" ["l"="62.611,1.071"]
"squarefk/FastIPC" ["l"="62.557,1.132"]
"lyd405121/wcsph" ["l"="62.693,1.091"]
"MeshFEM/MeshFEM" ["l"="62.406,1.445"]
"jpanetta/ElasticRods" ["l"="62.876,1.018"]
"swyngaard/imicu" ["l"="62.857,1.02"]
"rlguy/SPHFluidSim" ["l"="62.595,0.882"]
"rosamu/SPH" ["l"="62.609,0.895"]
"lazyzq/MatlabPeridynamicsCode" ["l"="62.48,0.724"]
"groundflyer/physhader-for-mantra" ["l"="63.013,1.155"]
"teared/meshlab-in-houdini" ["l"="63.043,1.156"]
"fabric-engine/SpliceHoudini" ["l"="63.032,1.172"]
"elrnv/stokes-houdini" ["l"="62.972,1.146"]
"UnrealXinda/CPP-Fluid-Particles" ["l"="62.813,1.128"]
"lyd405121/ti-raytrace" ["l"="62.557,1.077"]
"lyd405121/OpenClothPy" ["l"="62.599,1.065"]
"theAfish/BlackHoleRayMarching" ["l"="62.537,1.058"]
"dilevin/CSC417-a3-finite-elements-3d" ["l"="62.558,1.319"]
"dilevin/CSC417-a1-mass-spring-1d" ["l"="62.557,1.337"]
"dilevin/CSC417-a2-mass-spring-3d" ["l"="62.569,1.339"]
"dilevin/CSC417-a5-rigid-bodies" ["l"="62.572,1.326"]
"pmocz/nbody-python" ["l"="62.572,1.506"]
"pmocz/sph-python" ["l"="62.603,1.468"]
"zhehaoli1999/taichi-TopOpt" ["l"="62.52,1.057"]
"Wimacs/taichi_code" ["l"="62.601,1.03"]
"prashjha/PeriDEM" ["l"="62.562,0.861"]
"ganyx/CapDEM" ["l"="62.605,0.911"]
"taichi-dev/taichi-docs-zh-cn" ["l"="62.465,1.009"]
"taichi-dev/docs.taichi.graphics" ["l"="62.429,0.989"]
"houkensjtu/karman_taichi" ["l"="62.647,1.116"]
"JYLeeLYJ/Taichi_Animation_Demos" ["l"="62.802,1.203"]
"Continuous-Collision-Detection/CCD-Wrapper" ["l"="62.558,1.258"]
"Continuous-Collision-Detection/Exact-Root-Parity-CCD" ["l"="62.538,1.255"]
"vvasilo/semnav" ["l"="63.091,0.738"]
"real-stanford/fit2form" ["l"="63.083,0.752"]
"yhesper/TaichiSimplicialFluid" ["l"="62.53,1.072"]
"ravinderbhattoo/PeriDyn" ["l"="62.446,0.698"]
"GZhonghui/tiCloth" ["l"="62.623,1.058"]
"taichi-dev/cloth-simulation-homework" ["l"="62.579,1.02"]
"HauDang/Numerical-modeling-of-wing-crack-propagation-accounting-for-fracture-contact-mechanics" ["l"="62.856,1.707"]
"HauDang/Multiscale-simulation-of-injection-induced-fracture-shear-deformation-and-wing-crack-propagation-in-" ["l"="62.849,1.689"]
"ZeusYang/FluidEngine" ["l"="62.944,1.138"]
"tytrusty/mfem" ["l"="62.527,1.303"]
"zhehaoli1999/Qtaichi" ["l"="62.465,1.037"]
"JYLeeLYJ/Fluid-Engine-Dev-on-Taichi" ["l"="62.829,1.213"]
"johnfoster-pge-utexas/PGE383-AdvGeomechanics" ["l"="62.877,1.631"]
"HarrisKomn/Haptics-Medical-Simulation" ["l"="62.921,0.759"]
"ChiaraSapo/Open-Source-Visuo-Haptic-Simulator-for-Surgical-Training" ["l"="62.921,0.785"]
"khazali/Osiris" ["l"="62.893,1.546"]
"khazali/Starfish" ["l"="62.869,1.536"]
"wlgys8/GPUClothSimulationLearn" ["l"="62.876,1.317"]
"wlgys8/XPBDUnityRust" ["l"="62.837,1.295"]
"libigl/libigl" ["l"="62.888,0.109"]
"nmwsharp/geometry-central" ["l"="62.954,0.142"]
"ParticulateFlow/LBDEMcoupling-public" ["l"="62.755,1.352"]
"kks32/lbm-dem" ["l"="62.798,1.359"]
"christopherbatty/FluidRigidCoupling2D" ["l"="62.798,0.986"]
"PhysikaTeam/PhysIKA-old" ["l"="62.567,1.116"]
"Housz/awesome-simulation" ["l"="62.578,1.152"]
"fabricix/MPM-Geomechanics" ["l"="62.83,1.156"]
"taichi-dev/quantaichi" ["l"="62.571,0.996"]
"jamornsriwasansak/brass-pan" ["l"="62.758,1.176"]
"VasiliBaranov/packing-generation" ["l"="62.725,1.574"]
"MosGeo/ParticlePack" ["l"="62.747,1.567"]
"gcherchi/InteractiveAndRobustMeshBooleans" ["l"="62.981,0.105"]
"rlguy/FLIPViscosity3D" ["l"="62.782,1.033"]
"kbladin/Fluid_Simulation" ["l"="36.272,24.113"]
"google/FluidNet" ["l"="63.511,-2.514"]
"mitsuba-renderer/mitsuba" ["l"="-24.655,-27.834"]
"christopherbatty/SDFGen" ["l"="63.608,1.326"]
"karimnaaji/voxelizer" ["l"="-22.094,-25.568"]
"wlgys8/PBDClothLearn" ["l"="62.781,1.255"]
"LwRuan/MiNNIE" ["l"="62.54,1.17"]
"HinaPE/HinaPE" ["l"="62.508,1.156"]
"rjwalia/Navier-Stokes-Numerical-Solution-Using-FDM-FVM-LBM-Solver-Python-Scripting" ["l"="62.619,1.397"]
"PMEAL/pytrax" ["l"="62.724,1.526"]
"tldr-group/taufactor" ["l"="62.721,1.541"]
"ImperialCollegeLondon/porescale" ["l"="62.737,1.548"]
"QibangLiu/PDLSM-FEM_mpi" ["l"="62.527,0.738"]
"PeriHub/PeriLab.jl" ["l"="62.531,0.719"]
"pmocz/cfd-comparison-python" ["l"="62.626,1.455"]
"goktug97/LatticeBoltzmannSimulation" ["l"="62.636,1.427"]
"pmocz/finitedifference-python" ["l"="62.64,1.441"]
"xuhao1/TaichiSLAM" ["l"="62.474,0.973"]
"ethz-asl/voxgraph" ["l"="59.445,11.246"]
"StanfordASL/SSMR-for-control" ["l"="63.131,0.953"]
"bsavery/ray-tracing-one-weekend-taichi" ["l"="62.531,1.038"]
"yslib/Cameray" ["l"="62.513,0.987"]
"erizmr/taichi_ray_tracing" ["l"="62.555,1.024"]
"runck/Taichi_Titanic188" ["l"="62.503,1.006"]
"yikaiw/EIP" ["l"="59.425,16.138"]
"GrauleM/somogym" ["l"="63.044,0.78"]
"GrauleM/somo-rl" ["l"="63.058,0.782"]
"SamsungLabs/HIO-SDF" ["l"="63.054,0.762"]
"asalimil/Trajectory-Tracking-Control-of-an-Octopus-Inspired-Continuum-Robot" ["l"="63.207,0.853"]
"lorocks/Nonlinear_Model_Predictive_Control_for_Continuum_Robots" ["l"="63.19,0.865"]
"tud-phi/pcc-pneumatic-piston-backstepping" ["l"="63.046,0.925"]
"ethz-pbs21/SandyFluid" ["l"="62.473,1.094"]
"zhoub/vhacd4h" ["l"="63.068,1.159"]
"ifsheldon/stannum" ["l"="62.504,1.099"]
"Hanke98/AutoQuantizer" ["l"="62.5,1.121"]
"hzaskywalker/PlasticineLab" ["l"="62.474,1.126"]
"zhouxian/FluidLab" ["l"="62.446,1.156"]
"hshi74/robocraft" ["l"="59.797,16.449"]
"sizhe-li/CPDeform" ["l"="62.428,1.108"]
"mo-hanxuan/FEMcy" ["l"="62.53,1.096"]
"YilingQiao/diffsim" ["l"="61.274,16.192"]
"sail-sg/ILD" ["l"="62.422,1.128"]
"CzzzzH/MLS-MPM" ["l"="62.662,1.065"]
"behindthepixels/EDXFluids" ["l"="62.795,1"]
"ipc-sim/IDP" ["l"="62.589,1.259"]
"sheldona/contactFrictionSim" ["l"="62.544,1.138"]
"fabricix/MPM-Particle-Generator" ["l"="62.843,1.174"]
"ORNL/CabanaPD" ["l"="62.496,0.714"]
"alijenabi/RelationBasedSoftware" ["l"="62.467,0.739"]
"PeriFast/Code" ["l"="62.449,0.732"]
"lm2-poly/PeriPyDIC" ["l"="62.51,0.725"]
"kaipartmann/Peridynamics.jl" ["l"="62.518,0.709"]
"hbertiche/NeuralClothSim" ["l"="29.849,28.863"]
"xuan-li/PAC-NeRF" ["l"="64.313,3.227"]
"zeshunzong/warp-mpm" ["l"="64.312,3.187"]
"phys-sim-book/mdbook-src" ["l"="62.55,1.153"]
"houkensjtu/taichi-2d-vof" ["l"="62.717,1.19"]
"bsavery/BlenderPythonRenderer" ["l"="62.431,1.03"]
"knightyFF/Taichi-SDF-toy" ["l"="62.499,1.051"]
"srl-ethz/diffPD_sim2real" ["l"="62.528,1.228"]
"zhehaoli1999/DiffFR" ["l"="62.518,1.237"]
"isantesteban/snug" ["l"="29.887,28.844"]
"nmwsharp/neural-physics-subspaces" ["l"="62.564,1.217"]
"coreqode/awesome-cloth-simulation" ["l"="29.771,28.909"]
"rsugimoto/SurfaceOnlyDeformables" ["l"="62.544,1.232"]
"kaust-csg-uaamg/uaamg" ["l"="62.474,1.186"]
"rgoldade/ReducedFluids" ["l"="62.426,1.189"]
"jakericedesigns/Assorted-Houdini-Demos" ["l"="-30.952,-28.038"]
"rgoldade/AdaptiveViscositySolver" ["l"="62.411,1.207"]
"DQLin/VolumetricReSTIRRelease" ["l"="-24.522,-27.869"]
"phys-sim-book/phys-sim-book.github.io" ["l"="62.533,1.153"]
"andreaprotopapa/sofa-dr-rl" ["l"="62.954,0.943"]
"ScheiklP/sofa_env" ["l"="60.246,16.779"]
"Shaswat2001/INN_Continuum_Robot" ["l"="63.08,0.829"]
"ORNL/PDMATLAB2D" ["l"="62.423,0.718"]
"taichi-dev/voxel-challenge" ["l"="62.575,1.071"]
"yuanming-hu/voxel-art" ["l"="62.533,1.013"]
"AntonioFerreras/Digital-Earth" ["l"="62.491,0.948"]
"lucaricciatl/continuum-control" ["l"="63.159,0.872"]
"lucaricciatl/continuum-kinematics" ["l"="63.138,0.87"]
"theAfish/Homework-2-Ant-Colony" ["l"="62.499,1.031"]
"HiFiLES/HiFiLES-solver" ["l"="63.256,-1.555"]
"NVlabs/DiSECt" ["l"="62.377,1.157"]
"real-stanford/roboninja" ["l"="62.341,1.159"]
"kuiwuchn/SagFreeMPM" ["l"="62.452,1.111"]
"lm2-poly/PeriPyVFM" ["l"="62.501,0.695"]
"nw2190/LAMMPS" ["l"="62.516,0.692"]
"alecjacobson/indexed_sum" ["l"="62.438,1.339"]
"taichi-dev/taichi-nerfs" ["l"="63.681,1.749"]
"Linyou/taichi-ngp-renderer" ["l"="63.752,1.758"]
"patr-schm/TinyAD" ["l"="62.987,0.21"]
"tianshao1992/FEM_taichi" ["l"="62.491,1.082"]
"LamWS/iARAP" ["l"="62.555,1.203"]
"InfinyTech3D/SofaUnity" ["l"="62.927,0.816"]
"tbs-ualberta/CRESSim" ["l"="62.939,0.786"]
"InfinyTech3D/SofaUE5-Renderer" ["l"="62.942,0.803"]
"g1n0st/power-pic" ["l"="62.577,1.095"]
"DIOYF/UE5simulation_TaichiAOTMode" ["l"="62.469,1.062"]
"andresgm/IBMlb-poiseuille" ["l"="62.652,1.388"]
"xzhang66/FEM-Book" ["l"="62.908,1.237"]
"Mr-November/micsolver" ["l"="63.213,0.87"]
"jim19930609/taichi-unreal" ["l"="62.445,1.06"]
"Alvf/Collision-Penalty-Analysis" ["l"="62.538,1.215"]
"jrsassen/repulsive-shells" ["l"="62.521,1.187"]
"InteractiveComputerGraphics/FastCorotatedFEM" ["l"="63.502,1.297"]
"Kasai2020/look_both_ways" ["l"="63.094,0.769"]
"jdechalendar/pnm-generation" ["l"="62.844,1.539"]
"sofa-framework/doc" ["l"="62.87,0.987"]
"projectchrono/chrono" ["l"="-21.677,-25.632"]
"AnkaChan/TinyVBD" ["l"="62.598,1.142"]
"latticeboltzmann/2d-lb" ["l"="62.74,1.332"]
"simit-lang/simit" ["l"="62.843,1.138"]
"tensor-compiler/taco" ["l"="37.115,0.938"]
"gilbo/ebb" ["l"="62.907,1.157"]
"dneg/openvdb_points_dev" ["l"="62.883,1.157"]
"GeometryCollective/wost-simple" ["l"="62.463,1.24"]
"rsugimoto/WoBToolbox" ["l"="62.465,1.223"]
"rohan-sawhney/mcgp-resources" ["l"="62.428,1.258"]
"tyxchen/WoBonPBRTv3" ["l"="62.439,1.23"]
"rohan-sawhney/fcpw" ["l"="62.988,0.166"]
"rgl-epfl/cholespy" ["l"="-24.419,-27.756"]
"Argent1024/BidirectionalWoS" ["l"="62.483,1.237"]
"khayratk/pypnm" ["l"="62.861,1.554"]
"SamsungLabs/RAMP" ["l"="63.046,0.743"]
"SamsungLabs/SceneGrasp" ["l"="63.064,0.742"]
"epfl-lasa/Neural-JSDF" ["l"="61.298,16.326"]
"zhaohaiyang01/Non-ordinary-state-based-peridynamic-NOSBPD-for-2D-fracture-problem" ["l"="62.483,0.707"]
"ssloy/tinyrenderer" ["l"="-23.691,-27.3"]
"jax-ml/jax" ["l"="50.809,29.353"]
"google/filament" ["l"="-23.579,-27.392"]
"mmp/pbrt-v3" ["l"="-24.735,-27.8"]
"QianMo/Game-Programmer-Study-Notes" ["l"="-24.896,-27.691"]
"pybind/pybind11" ["l"="-20.066,-25.744"]
"BoomingTech/Piccolo" ["l"="-24.836,-27.703"]
"Genesis-Embodied-AI/Genesis" ["l"="59.161,16.789"]
"ocornut/imgui" ["l"="-23.863,-27.379"]
"NVlabs/instant-ngp" ["l"="63.479,1.669"]
"triton-lang/triton" ["l"="38.919,-0.703"]
"apache/tvm" ["l"="50.13,29.773"]
"bulletphysics/bullet3" ["l"="-23.7,-27.441"]
"NVIDIAGameWorks/Flow" ["l"="62.731,1.207"]
"YunzhuLi/PyFleX" ["l"="59.833,16.434"]
"Wumpf/yasph2d" ["l"="62.88,1.045"]
"SamsungLabs/FineControlNet" ["l"="63.067,0.722"]
"HuysmanWang/Deep-learning-aided-porous-media-hydrodynamic-analysis-and-three-dimensional-reconstruction" ["l"="62.843,1.51"]
"DIG-Kaust/RockGAN" ["l"="62.836,1.493"]
"VasiliBaranov/PorousMediaAnalysis" ["l"="62.82,1.503"]
"LukasMosser/geogan" ["l"="62.823,1.482"]
"InteractiveComputerGraphics/Discregrid" ["l"="63.563,1.314"]
"janehwu/mcc-ho" ["l"="63.141,0.67"]
"hongsukchoi/HandNeRF_RELEASE" ["l"="63.125,0.691"]
"geoelements/diffmpm" ["l"="63.579,-2.265"]
"PeriHub/PeriHub" ["l"="62.544,0.697"]
"SamsungLabs/HandNeRF" ["l"="63.104,0.717"]
"christopherbatty/VariationalViscosity2D" ["l"="62.818,0.959"]
"bwiberg/position-based-fluids" ["l"="62.956,1.105"]
"bwiberg/position-based-dynamics" ["l"="62.99,1.102"]
"honglin-c/trust-region-newton" ["l"="62.527,1.17"]
"Q-Minh/PhysicsBasedAnimationToolkit" ["l"="62.762,0.911"]
"joonatansir/softbody" ["l"="62.605,1.335"]
"NVIDIA-RTX/MathLib" ["l"="-22.997,-27.707"]
"NVIDIA-RTX/ShaderMake" ["l"="-22.994,-27.725"]
"OpenGeoVis/PVGeo" ["l"="40.777,22.67"]
"ICWallis/fractoolbox" ["l"="40.672,22.686"]
"julianshapiro/blast" ["l"="4.401,-8.421"]
"spiriMirror/libuipc-doc" ["l"="62.51,1.17"]
"LotteMakesStuff/SimplePhysicsDemo" ["l"="-27.18,-33.694"]
"HenrikSchumacher/Repulsor" ["l"="62.482,1.206"]
"KemengHuang/Fastest-GPU-SPH-framework" ["l"="62.487,1.153"]
"markeasting/THREE-XPBD" ["l"="62.524,1.123"]
"yafei-ou/physx5-for-unity" ["l"="62.948,0.769"]
"hanbollar/Position-Based-Dynamics" ["l"="62.808,1.227"]
"Scrawk/CyclonePhysicsEngine" ["l"="62.805,1.247"]
"KratosMultiphysics/Kratos" ["l"="63.022,-1.531"]
"usnistgov/fipy" ["l"="63.11,-1.641"]
}